21
-1 1 C6FH6N2O4S2
C                     1.846973703216    -1.065890418122    -0.097356578565
C                     0.802731104558    -0.347833980356     0.489851041127
C                     2.834665678712    -1.632871217914     0.705163442495
C                     0.754999669412    -0.209093415536     1.877708178025
C                     2.803472645390    -1.511258251408     2.102553855013
C                     1.741932063940    -0.793141519191     2.685115468132
N                     3.574398612055    -3.950616753098     3.160256949167
N                     0.040541890683     0.219973912833     4.590713534163
O                     4.223160214852    -1.861248491311     4.330539113448
O                     5.286079451106    -2.267734690370     2.057163087089
O                     1.437459435738    -1.818123437949     5.168469567321
O                     2.522780230307     0.513908267932     4.918193284621
F                     3.584789504013    -4.502337124613     1.767669169092
S                     4.138722894623    -2.435352058693     2.976725327665
S                     1.594657701666    -0.535259568238     4.485732453927
H                     1.896766426474    -1.180972025488    -1.177958350690
H                     0.027448887593     0.108668180660    -0.121051006767
H                     3.662718113887    -2.178855694765     0.267155802737
H                    -0.046132139904     0.348399485582     2.344986863600
H                    -0.566592399595    -0.421294328990     5.099283832818
H                     0.175273318995     1.074085462785     5.129889976862
