19
-1 1 C8H7N4
C                     1.951085535798    -0.952362723759    -0.115390075346
C                     0.837573301590    -0.402324093295     0.530712496636
C                     2.955711107951    -1.559976072874     0.634668883413
C                     0.761618221080    -0.477553560721     1.924252398807
C                     2.891445419730    -1.642820876622     2.043522708384
C                     1.762091302618    -1.085089094327     2.700190821971
C                     4.003951915607    -2.304467674619     2.739493416669
C                     1.594544425992    -1.119406897911     4.201028319951
N                     5.066069739434    -2.824457162387     2.079713418286
N                     4.124177342424    -2.482423181223     4.075315944597
N                     5.852948642132    -3.331389938039     3.038747008172
N                     5.291881572298    -3.128117995706     4.232524518897
H                     2.035597406512    -0.907581763778    -1.200011504022
H                     0.042451056224     0.076489835248    -0.037951060227
H                     3.826227828780    -1.991796387473     0.151039421086
H                    -0.102057995284    -0.051641573181     2.433659649430
H                     1.604088586787    -2.145302060116     4.579474937355
H                     2.428895377042    -0.625004371845     4.706241121499
H                     0.654584790534    -0.633362011498     4.488932097473
