20
0 1 C8H8N4
C                     1.962710289091    -0.934426659086    -0.105735665771
C                     0.838882496592    -0.419542667755     0.545748289187
C                     2.980805892513    -1.512481846705     0.649706819131
C                     0.747172392326    -0.493876788508     1.937540170861
C                     2.894689958670    -1.583467810329     2.052520266163
C                     1.756408733142    -1.072302765306     2.720463129944
C                     4.010228645256    -2.189732053896     2.789041321384
C                     1.599098895491    -1.122426250781     4.221020825474
N                     3.982507855828    -2.858947726455     3.937213376990
N                     5.263977100168    -3.241392965616     4.197564294180
N                     6.072701634063    -2.836199213101     3.269036839136
N                     5.303270783523    -2.176138925424     2.372139126200
H                     2.041556248827    -0.895481486551    -1.188457395886
H                     0.034374108039     0.034503899333    -0.026742372516
H                     3.837510913516    -1.945871515699     0.139012747118
H                    -0.131146665467    -0.090512650323     2.435200094874
H                     1.473938981145    -2.150571400401     4.570318652872
H                     2.482937800769    -0.732687621422     4.733879544494
H                     0.729613758007    -0.536928704287     4.530500914743
H                     5.729665195467    -1.718976213663     1.575668870683
