20
0 1 C4H10NO3PS
C                     0.632587952241    -1.823465852315     0.353873559238
C                     0.116422134952    -3.245304093213     0.240484392885
C                     1.652605066908     2.015466722236     2.590843389443
C                    -0.670679837108     2.526586004013    -1.313333247906
N                    -0.304808311766    -0.905448978531     0.827898471066
O                     1.766576111229    -1.484943686917     0.057202193770
O                    -1.325314529053     1.424151618451     1.437049429235
O                     1.154062597019     0.755115532762     2.084714254054
P                    -0.056877062000     0.763798669318     1.030126770105
S                     0.781454143066     1.553761812595    -0.736408388101
H                    -0.741654666843    -3.291428411878    -0.438564810443
H                    -0.206880359399    -3.616838555557     1.218575220492
H                     0.914669579213    -3.880860941277    -0.141807739434
H                     2.430613096851     1.759088798751     3.309495844793
H                     0.848425472031     2.567304237710     3.083988325868
H                     2.077520814848     2.608816856361     1.776800889169
H                    -0.305387427430     3.133606653485    -2.144679509587
H                    -1.048180777794     3.167004995790    -0.517407425779
H                    -1.464688598370     1.866487991293    -1.664233751988
H                    -1.249257428469    -1.218171415946     1.031866450768
