15
1 1 C5ClH5NO2S
C                     0.631032419955    -0.665506865285     0.512387269751
C                     3.021608106633    -1.120774249489     0.370709041148
C                     0.660716001742    -1.044364912678     1.843036503057
C                     1.821263781897    -0.703124988378    -0.235703906508
C                     2.976547926297    -1.486788758514     1.697493322861
N                     1.828687333813    -1.437121312667     2.397153814499
O                     3.704920096982    -2.269595086939     4.048859893995
O                     4.474321445893    -3.472889759838     1.869355756059
S                     4.401829491554    -2.051161386712     2.752999013939
Cl                    1.813031747746    -0.245547311724    -1.884483286771
H                    -0.302124097407    -0.344924611677     0.062534712522
H                     3.949876719936    -1.168818984002    -0.189438159941
H                    -0.215226314819    -1.043995658113     2.482570530618
H                     1.898632675743    -1.746344930909     3.382969126519
H                     5.308559597529    -3.944756210741     2.076443108416
