13
0 1 C3Cl2H7N
C                     0.366812238378    -0.673511930038     2.643410948658
C                     2.358668258830     0.536121899545     1.959095521899
C                     2.860205797647     1.703141718073     1.119256050655
N                     0.934391749266     0.325367592540     1.734180221066
Cl                    2.739363313160     1.323140430942    -0.647294358437
Cl                    4.560265772858     2.102232274022     1.561195000829
H                     0.404989336650    -0.296096869521     3.670836750653
H                     0.885801448924    -1.647111366069     2.619026277578
H                    -0.684066814013    -0.835155935423     2.387376477058
H                     2.988997301729    -0.346739303211     1.759550606411
H                     2.503637429923     0.812016534739     3.009433644054
H                     2.262383459912     2.597829835691     1.278047817334
H                     0.792740773289     0.024272194464     0.772126368125
