23
1 1 C7H14NO
C                     1.825031714140    -0.344348385321     0.845679291020
C                     0.791414850995    -0.279997700657     1.706269478186
C                     1.212157830249     2.253292835737     2.339184266148
C                    -0.274745638008     2.036551497148     2.272682481415
C                     0.629644414590     0.877330819353     2.660908537094
C                    -0.264211439570    -1.355318289511     1.778116249087
C                     0.553117510479     0.486282158891     4.116735650313
N                     2.855535803471    -0.148145562592     3.910276785854
O                     1.617648038421    -0.464209240790     4.517023818958
H                     1.928186646156    -1.173900397584     0.151616991552
H                     2.551728319273     0.459513539185     0.742440442083
H                     1.738250932634     2.388711114901     1.401007640384
H                     1.591741638896     2.857709123692     3.159940718157
H                    -0.901939999156     2.478657794322     3.041615291532
H                    -0.731435942690     1.981299353150     1.290062664191
H                    -0.268870627947    -1.859327789707     2.750657346572
H                    -1.258179631413    -0.915925004519     1.638850153087
H                    -0.112855554637    -2.114277045851     1.008451904393
H                    -0.337035701322    -0.094358107028     4.363946033715
H                     0.611610817266     1.356519294233     4.778564479978
H                     3.522612695206    -0.831957519569     4.292472607921
H                     3.169142236709     0.806275253051     4.143669320390
H                     2.765053141621    -0.269859596653     2.873371657856
