25
0 1 C7H10N2O4S2
C                     4.335608467081     0.536481406666    -5.775707205908
C                     4.257239999818     0.709805882413    -4.421793029916
C                     6.193036161346    -0.372608602122    -4.483603256502
C                     2.036798490611     2.020075077850    -4.381804991977
C                     0.014985187334     3.216344939152    -4.105738220728
C                     7.131868178377    -1.161175236157    -1.299477044275
C                     3.178992574146     1.382344607935    -3.617990918310
N                     5.325619180696     0.200570249251    -3.699291302493
N                     7.356347199059    -0.984667949992    -4.004798488017
O                     1.887563897195     2.057364290848    -5.588150614916
O                     5.966211033500    -2.926498218709    -2.900301729528
O                     8.515725740999    -2.876974957777    -2.826226730980
O                     1.161018753164     2.570641499081    -3.509371109739
S                     5.777716475902    -0.348122958739    -6.186065585122
S                     7.222400821015    -2.192549557411    -2.766569551836
H                     3.650812309286     0.885418102369    -6.533405097000
H                    -0.571851024041     3.594104970293    -3.268979264656
H                    -0.564070187547     2.498256507332    -4.690664583923
H                     0.334808473819     4.035178758061    -4.754153778672
H                     7.015321321648    -1.840710277082    -0.453153771048
H                     8.059604550532    -0.594158621651    -1.227570243512
H                     6.266230995315    -0.508452609643    -1.412771345029
H                     2.746167039810     0.658045217901    -2.918153104680
H                     3.626826193314     2.154058159626    -2.981854647659
H                     8.020822041780    -1.309501888482    -4.704546098100
