25
0 1 C7H10N2O4S2
C                     5.488419184281     1.671109573740    -4.325799278464
C                     4.453451501053     0.866891190173    -3.933619385295
C                     5.973045378343    -0.714087994986    -4.263276789936
C                     2.678730024317     2.715514645677    -3.670837205746
C                     0.861156343280     4.222265482024    -3.532427292014
C                     8.850710208575    -2.372358660657    -5.679131433609
C                     3.051746611485     1.252745309549    -3.548159778114
N                     4.740249150035    -0.489708676582    -3.909144558294
N                     6.555133695365    -1.993230277794    -4.252373792024
O                     3.426568629584     3.647744250945    -3.897661439282
O                     6.863702176345    -4.140003619892    -5.551309477429
O                     6.523780776441    -1.978317360191    -6.880856704487
O                     1.349276260539     2.864547410905    -3.469339853896
S                     6.905114367744     0.714672577050    -4.643750754027
S                     7.084075152296    -2.706109113436    -5.744622913212
H                     5.489704550434     2.743217940507    -4.450749501049
H                    -0.210579488022     4.152933795154    -3.348654667335
H                     1.057066933186     4.650565879154    -4.517931929386
H                     1.345219476914     4.836392912643    -2.769650575018
H                     9.283001295095    -2.824168644389    -6.573817482145
H                     9.003467190717    -1.292734982646    -5.687073235227
H                     9.252260470159    -2.827754359752    -4.774447915205
H                     2.338893298059     0.666779457100    -4.136944091888
H                     2.867890138677     0.956256245630    -2.507955881095
H                     5.939754945855    -2.668356722209    -3.794914995030
