24
-1 1 C7H9N2O4S2
C                     3.097398364317     0.676205648419    -6.324922695930
C                     2.917216836733     0.010293697980    -5.145251779617
C                     4.988587072487    -0.756594075056    -5.539062279442
C                     1.077124569840     1.450363734235    -4.271707276124
C                     1.244819055158     3.589495265276    -3.288440666763
C                     6.272903835273    -1.614794572023    -2.731665509863
C                     1.658648693996     0.058512309541    -4.298336674597
N                     3.955327271664    -0.774382959671    -4.699323838712
N                     6.191133943902    -1.340597029311    -5.483493004834
O                     0.221059424629     1.882128416433    -5.025708700354
O                     7.919617741631    -2.801151039131    -4.419780039807
O                     5.524474811116    -3.589621050699    -4.328542750087
O                     1.644950111089     2.210969819231    -3.297389942413
S                     4.682595827401     0.300891813020    -6.970813612903
S                     6.483353606085    -2.460487896823    -4.329246158894
H                     2.401693377076     1.327887039394    -6.836960020791
H                     1.794673494911     4.049026838821    -2.465831665883
H                     0.166641771925     3.680976288728    -3.128801264028
H                     1.505529347175     4.068752734282    -4.236142842160
H                     6.498200884546    -2.347980180951    -1.953689145884
H                     6.980383100119    -0.784054387585    -2.694858096840
H                     5.242777790141    -1.264527318434    -2.665845601716
H                     0.897390429838    -0.621504319688    -4.692121361159
H                     1.924559385090    -0.253438899716    -3.286656619882
