24
-1 1 C7H9N2O4S2
C                     4.563778075466     1.114519814076    -4.883590323314
C                     3.942616355687     0.253027983028    -4.024871407309
C                     5.689693059302    -1.080960877072    -4.484151902142
C                     2.239867832157     1.930271593783    -3.168165454954
C                     1.472613074726     3.849822581162    -4.312052365803
C                     6.025691372204    -3.142300579964    -2.053665289228
C                     2.626825391853     0.478187409184    -3.306328787980
N                     4.559683587966    -0.955685422173    -3.792881224132
N                     6.600055220689    -2.059985104485    -4.534550596809
O                     2.284317463703     2.587956870637    -2.143682963064
O                     7.506772330071    -4.303971866838    -3.904811750545
O                     5.020011181621    -4.129137029372    -4.294783450715
O                     1.804621608422     2.453048808264    -4.348996994477
S                     6.040269685764     0.382742642045    -5.483093782963
S                     6.272078953837    -3.494245208892    -3.821579837793
H                     4.233179963082     2.089217102316    -5.213870844704
H                     1.169933679921     4.106085159891    -5.328387618899
H                     2.339610735354     4.443344195163    -4.009265241102
H                     0.655033522225     4.035379189221    -3.609671310623
H                     5.832802564091    -4.099996584491    -1.564679431674
H                     6.942407755950    -2.690795957942    -1.669385810727
H                     5.176644916009    -2.465526706348    -1.957386014920
H                     1.830228705317    -0.059822319476    -3.834674544834
H                     2.705590054094     0.062715415955    -2.300332027715
