24
-1 1 C7H9N2O4S2
C                     4.318832623443     2.378422110723    -5.060140684504
C                     3.943459266191     1.581274296706    -4.015516199821
C                     6.064139843134     0.856069436839    -4.119941083057
C                     1.484955916202     1.684171360667    -4.423540870492
C                     0.224430685636     0.500186856321    -6.029882418670
C                     6.171609257492    -2.068918573612    -2.815763135365
C                     2.566214540123     1.568685784710    -3.377626611609
N                     4.894204517472     0.733481948165    -3.496185701724
N                     7.228848469611     0.216703174329    -3.962068682406
O                     0.966960436956     2.720484466369    -4.805057281938
O                     7.196216106027    -0.103713176931    -1.367287140285
O                     8.735698817732    -1.441938090018    -2.852551974268
O                     1.150976911786     0.468360630716    -4.933935274743
S                     6.002973265373     2.083447954156    -5.443827336359
S                     7.433189842045    -0.765435006964    -2.671298471241
H                     3.721408994278     3.106903625295    -5.592385471963
H                     0.079239365950    -0.541052778086    -6.321350866177
H                     0.638135264023     1.075266596903    -6.862894186245
H                    -0.724689869898     0.949825276700    -5.724347911727
H                     6.317748169517    -2.745437987075    -1.970464534430
H                     5.189823963313    -1.596290234528    -2.785358951803
H                     6.334503756252    -2.591581009557    -3.760361151952
H                     2.459145310739     0.628867270231    -2.832949842773
H                     2.452738678668     2.401524770633    -2.677293138853
