24
-1 1 C7H9N2O4S2
C                     3.524948695085     0.354582677867    -5.686986296703
C                     3.638738961887     0.026176851414    -4.366314027648
C                     5.516204697374    -1.013456751325    -5.029330584980
C                     1.251085259472     0.442632341656    -3.772326780037
C                    -0.631023873743    -0.903913517937    -4.235250252499
C                     8.592720575351    -0.207816585012    -6.030491887939
C                     2.673625707945     0.440097286478    -3.269845199660
N                     4.730069426243    -0.722626512701    -3.998564849268
N                     6.646594181449    -1.732900162560    -4.893733258707
O                     0.664911519756     1.398738046954    -4.252860613891
O                     7.131622232685    -1.879615613156    -7.450411157643
O                     8.737946243930    -2.829180248913    -5.739404395106
O                     0.674925399410    -0.782938538060    -3.651727134972
S                     4.847343017910    -0.340323759796    -6.594785525855
S                     7.727701799361    -1.811570403712    -6.089546974545
H                     2.753166667863     0.946485459403    -6.162605095582
H                    -0.931563016611    -1.939321735901    -4.068708373356
H                    -0.592051617918    -0.685904577673    -5.306026336261
H                    -1.335998352348    -0.217099607437    -3.757931736420
H                     9.350018815938    -0.208605122557    -6.817864296012
H                     7.864081191342     0.587614313546    -6.201897794666
H                     9.053714641245    -0.109246433766    -5.046442143932
H                     2.778094994442    -0.271062114821    -2.448170889779
H                     2.904881673618     1.445249363496    -2.903353743215
