25
0 1 C7H10N2O4S2
C                     4.528114436650     1.004794464351    -5.256457772469
C                     4.385255745984     0.294827648565    -4.097944609896
C                     6.429212093925    -0.380424110306    -4.623272204528
C                     3.531937998890     0.749039842828    -1.774226018698
C                     4.525999701638     2.454437490976    -0.476983859120
C                     7.313653721463    -2.871101646375    -2.484342173585
C                     3.188616577199     0.305030412733    -3.189767050789
N                     5.474924535688    -0.479401108867    -3.742911866812
N                     7.634206875615    -1.076280209391    -4.510198306083
O                     3.277496911622     0.118599392251    -0.767898480341
O                     6.447241537209    -3.384672770214    -4.941392455871
O                     8.964317036097    -3.205878046763    -4.573427494900
O                     4.143615878784     1.954187715485    -1.775302269892
S                     6.073449271502     0.669089357959    -5.986303490015
S                     7.594968226691    -2.796033101738    -4.255976282305
H                     3.844017020318     1.714084515403    -5.702910339660
H                     5.008185415073     3.413316047815    -0.665807914200
H                     5.219489066232     1.761806838117     0.005355638504
H                     3.645473990751     2.582345142113     0.156963062533
H                     7.247425669517    -3.930839934914    -2.230970029574
H                     8.160804437343    -2.397814153573    -1.988660478031
H                     6.378886515674    -2.350217267025    -2.276528578424
H                     2.426570548094     0.980439966956    -3.589554480206
H                     2.758819836254    -0.696158206355    -3.113806318667
H                     8.352978184167    -0.864835871179    -5.199583430440
