25
0 1 C7H10N2O4S2
C                     4.787072929845     0.934955402372    -5.241053392115
C                     4.051000204141     0.238898760999    -4.323443318021
C                     5.782919118691    -1.133287332566    -4.443782914821
C                     1.582269684331    -0.220672918886    -4.372728782589
C                    -0.653416690051    -0.913060906951    -4.045821882336
C                     9.179879341403    -2.275312640322    -4.973652204614
C                     2.706010162590     0.628906212381    -3.790892999516
N                     4.633466327232    -0.930238147379    -3.867689265411
N                     6.554980202223    -2.286850677345    -4.232490302298
O                     1.625821153981    -0.828725659715    -5.421767753524
O                     8.309218509743    -0.828381197101    -2.933022470998
O                     8.269699545067    -3.381126584389    -2.730083809764
O                     0.494239745865    -0.177488285462    -3.568871393132
S                     6.257741558785     0.085408291617    -5.607925358725
S                     8.130166394497    -2.155548036895    -3.517315107442
H                     4.557318806138     1.879809180888    -5.715553997214
H                    -1.424202445922    -0.770621356387    -3.288752727856
H                    -0.406826253626    -1.971805384813    -4.152065637606
H                    -0.982379597229    -0.521423928434    -5.011232269282
H                    10.210447678139    -2.236552214134    -4.616093751621
H                     8.970451295366    -3.222476600161    -5.469815398512
H                     8.971380752802    -1.426758816359    -5.625976720528
H                     2.683317064673     0.544392256709    -2.701368855110
H                     2.483368820899     1.672229090464    -4.037508402521
H                     6.030353957899    -2.984284105525    -3.701553498026
