25
0 1 C7H10N2O4S2
C                     0.827691816782     0.747368193186     3.000738436966
C                     0.759546598136     0.009969143013     1.871075587286
C                     2.738559101386    -0.871184743557     2.759837168858
C                     0.203164746906     0.120296019057    -0.581989175671
C                    -0.003960886130     1.176264242768    -2.682725227589
C                     4.860551709722    -4.003494161445     2.795345758751
C                    -0.332012745946     0.039186355632     0.840850379636
N                     3.830361845818    -1.561464362612     2.941711275042
N                     1.820549853046    -0.884515712347     1.745424051435
O                     1.079861193910    -0.601904712369    -1.016343545303
O                     3.221979808595    -3.075697664174     0.914937454009
O                     5.542646084476    -2.078141375671     1.104503187992
O                    -0.430956088837     1.062508467736    -1.302487544010
S                     2.243900966852     0.334956844525     3.958276191047
S                     4.351381922080    -2.622548428175     1.763147111697
H                     0.128441119975     1.501127566468     3.334054879764
H                    -0.623419459640     1.963111696464    -3.111090184339
H                    -0.159717863840     0.229583358221    -3.203863442663
H                     1.053276076986     1.445069459120    -2.726454855331
H                     5.283130695767    -4.752902607950     2.123826223246
H                     5.612210164809    -3.642347490080     3.497136141037
H                     3.985593085969    -4.393601293938     3.315376337130
H                    -1.007335493940     0.870035481783     1.043820823254
H                    -0.915088084302    -0.889572175223     0.896469328109
H                     1.951012223587    -1.502812699545     0.940326720397
