26
1 1 C7H11N2O4S2
C                     5.029166630004    -0.351101205123    -4.146037753541
C                     3.938340053481     0.436331799033    -4.275027476822
C                     4.970752662756     0.783323567399    -6.338545140819
C                     2.855311437626    -0.020912686483    -2.011784627827
C                     1.696052151062    -0.326583514768     0.029790909509
C                     6.018195270092     0.016959769761    -9.873474133973
C                     2.802873526827     0.731701991824    -3.339686108468
N                     3.931764931387     1.067714222087    -5.533646769828
N                     5.063697109909     1.279569762742    -7.601714865703
O                     3.730064089733    -0.793984736617    -1.675889620901
O                     6.612954095119     2.529845873217    -9.192795636347
O                     7.539015250979     0.602579937198    -7.764954917181
O                     1.789516244943     0.307168055826    -1.278635452751
S                     6.067200593537    -0.293959237011    -5.553775665486
S                     6.528000144471     1.199510420829    -8.623439979194
H                     5.298368353549    -0.947602287906    -3.286314607359
H                     0.777744303897     0.060771446430     0.466274079683
H                     2.562677784235    -0.055077462600     0.634279440736
H                     1.648217616320    -1.410184356399    -0.087238477459
H                     6.869158739526    -0.081337670009   -10.551619354455
H                     5.802707293018    -0.933414337791    -9.385191462971
H                     5.152523050207     0.418528436129   -10.400183002835
H                     2.771890640360     1.803689833189    -3.110920508958
H                     1.844895095132     0.495202721386    -3.817617332380
H                     3.169604282498     1.674331664983    -5.826480335785
H                     4.492600925408     2.092518014504    -7.832467758477
