26
1 1 C7H11N2O4S2
C                     6.089194902363     1.230294580087    -3.090610206061
C                     4.830183833008     0.831175051686    -3.381945798337
C                     5.681875111611     1.102479598463    -5.517500535943
C                     2.627088340009    -0.397878740136    -3.016642519359
C                     0.832073388211    -1.849088930362    -2.483067184597
C                     6.810975191911     2.748001019852    -8.760190927661
C                     3.702375479571     0.515161253731    -2.436813624982
N                     4.626633548754     0.775292091411    -4.763635925189
N                     5.613498362060     1.122910701934    -6.877598406939
O                     2.396141641373    -0.511001058297    -4.217615628333
O                     8.166432390440     1.202781439797    -7.062205147197
O                     6.771509552422     0.084720096655    -8.908080834159
O                     1.947735320169    -1.006716144933    -2.060524934033
S                     7.043481719752     1.513510916460    -4.530706923431
S                     7.023328397275     1.154630271871    -7.962328163482
H                     6.538721433513     1.360380372250    -2.115002410221
H                     0.407529630683    -2.234199545173    -1.558744402333
H                     1.203443927330    -2.657905514633    -3.113277570090
H                     0.105609113041    -1.247376436323    -3.030535723060
H                     7.644220114965     2.841599000860    -9.460460322349
H                     5.860900418740     2.746487715908    -9.294716765237
H                     6.855876349204     3.526276088492    -7.998594037714
H                     4.094421072855     0.082172732815    -1.515451081202
H                     3.191538180454     1.443720178943    -2.150800041998
H                     3.724897383368     0.390608215686    -5.092128610789
H                     4.811798613303     0.655590968083    -7.301685304614
