27
0 1 C8H14N2O3
C                     0.189711083088     2.997217831567    -1.999906319274
C                    -0.852677823676     6.126395001919    -2.044976284097
C                    -2.097064948520     5.848472459110    -1.225832123922
C                    -1.305358663760     0.375238935657    -1.615967313391
C                    -2.036607499972     0.540839196872     0.662450660514
C                    -1.501817486548     4.765960214377    -2.092620357377
C                    -2.522649232489     0.064677906684    -0.712027003211
C                     0.709075083394     1.775016223151    -1.216777801303
N                    -0.256760195810     0.822134932184    -0.675135789685
N                    -0.856927672314     3.664637519007    -1.432648029536
O                     0.725481582506     3.337758845066    -3.054142138508
O                    -1.017470232378     1.499877845692     0.385636987383
O                    -3.679829133079     0.829467068737    -1.060774851443
H                    -0.935873937591     6.753792747035    -2.926782143450
H                     0.093660021744     6.194819472670    -1.519117469630
H                    -1.978422195488     5.747840972124    -0.150664578409
H                    -3.039879510904     6.286341316852    -1.539395000583
H                    -0.931601461335    -0.498928007238    -2.155862802084
H                    -1.592978564167     1.152231125276    -2.337099794781
H                    -2.826643738497     1.043341229948     1.222022444888
H                    -1.615614331024    -0.290476621244     1.240103583493
H                    -2.027814183429     4.507390830476    -3.009354939527
H                    -2.765634553914    -1.004541496477    -0.698744152505
H                     1.349575573753     1.219426597831    -1.905099565223
H                     1.332751178105     2.115376189252    -0.384311657767
H                    -1.306620761991     3.231078153466    -0.631210546296
H                    -3.962779182187     0.573717516731    -1.952803509612
