28
1 1 C8H15N2O3
C                    -2.646125633040    -1.215444883286    -1.389503528912
C                    -6.165067552938    -1.609759424405    -2.447811758373
C                    -5.668111037733    -2.366234323461    -1.237438631184
C                     0.377827284272     0.200276783446     0.274900581096
C                     1.725256748096    -0.358132356262    -1.590072936771
C                    -4.725205515078    -2.055124199047    -2.372548730528
C                     1.837792510361    -0.121574468863    -0.077383181631
C                    -1.662552640658    -0.029777785914    -1.262562155361
N                    -3.713535520021    -1.033955187303    -2.179077113093
N                    -0.417041453459    -0.625509349781    -0.693433827446
O                    -2.398952789469    -2.222292385878    -0.717968123382
O                     0.460190700803    -1.045833358271    -1.767750567131
O                     2.619312043855     0.999271547639     0.258904638830
H                    -6.804656170420    -2.117820490538    -3.161717705814
H                    -6.373499264123    -0.550706886030    -2.324563052191
H                    -5.536603383448    -1.811464721731    -0.314443025365
H                    -5.958047390212    -3.403480601424    -1.109589088997
H                     0.081087750196    -0.067000190289     1.289259076846
H                     0.189806969998     1.258255017998     0.087494890277
H                     1.722088373632     0.597880965278    -2.123620098139
H                     2.478325767373    -1.028495867108    -2.004928856599
H                    -4.399252901256    -2.874290494705    -3.007033724860
H                     2.167322727259    -1.032882344010     0.433468442313
H                    -2.054270191697     0.696314393008    -0.546045083517
H                    -1.409203589941     0.465766773366    -2.199954794504
H                    -3.759590791644    -0.201289808547    -2.757049606190
H                    -0.763470933996    -1.529684270677    -0.285465942780
H                     3.520751192657     0.725120509020     0.490291686990
