28
1 1 C8H15N2O3
C                    -1.950249504598     0.737247133980    -2.112191981805
C                    -5.647749182392     0.592307649728    -2.407661771040
C                    -4.880009698636    -0.698812331697    -2.240243928984
C                     1.125911935776     0.119964441908    -1.560548124023
C                     0.460923420736    -0.932692873457     0.486110753101
C                    -4.239011167853     0.478434122183    -2.934128837668
C                     1.046697975624    -1.273357005326    -0.890811248954
C                    -0.950795570742     1.719249972910    -1.477641612921
N                    -3.200314224652     1.214792878753    -2.240778778975
N                     0.144754436272     0.989735731968    -0.755043098986
O                    -1.578701675237    -0.371927117126    -2.496684321839
O                    -0.464935938686     0.170620041527     0.251251683301
O                     0.313801773713    -2.213460497609    -1.618054414768
H                    -6.447506199899     0.639395436049    -3.139073260451
H                    -5.810049134681     1.196114600708    -1.519061144008
H                    -4.520696679224    -0.944628232606    -1.246445227310
H                    -5.142851489999    -1.551346663681    -2.857136987875
H                     2.106437237849     0.585867732411    -1.458450498657
H                     0.810743022156     0.092479808394    -2.599285094188
H                    -0.144524630485    -1.741272370462     0.892942229706
H                     1.221703747913    -0.612465708342     1.207297718577
H                    -4.085969615374     0.417847697273    -4.007701839951
H                     2.052725449335    -1.682631772490    -0.773544758845
H                    -1.418020565996     2.375760047722    -0.741220815615
H                    -0.466740030800     2.327795277178    -2.246883959955
H                    -3.408997279137     2.160321130667    -1.938067659996
H                     0.687821448034     1.697876415411    -0.245511100127
H                    -0.509881986082    -1.800572333822    -1.946505067822
