28
1 1 C8H15N2O3
C                    -2.495556586994    -1.175222758516    -1.932502424982
C                    -6.183142463128    -1.633053720550    -1.837581929582
C                    -5.295265925149    -2.788857643974    -1.436695954734
C                     0.668532007353    -1.336672809870    -1.692009300673
C                    -0.088147582740    -2.439201515978     0.277816818494
C                    -4.811067433275    -1.778300699095    -2.447527357373
C                     1.156775836747    -2.316303950626    -0.612794020467
C                    -1.549478911549     0.007870881288    -1.651865462379
N                    -3.794128283146    -0.826928039438    -2.049482349757
N                    -0.305819955714    -0.448738983166    -0.941381598124
O                    -2.050017252665    -2.312134928516    -2.059558910452
O                    -0.660736824865    -1.096490926429     0.301729733382
O                     1.516307967275    -3.513520880382    -1.256844025176
H                    -7.035380402956    -1.821250399005    -2.481921463018
H                    -6.332145874895    -0.841153857475    -1.108737462944
H                    -4.844139410827    -2.757222663013    -0.450510144582
H                    -5.526886859052    -3.782752216683    -1.804142242662
H                     1.448522176375    -0.701870441506    -2.113676577886
H                     0.125432435318    -1.881569769343    -2.459288077458
H                    -0.803708881165    -3.137176625827    -0.158273289431
H                     0.126008100747    -2.667631183211     1.322370118260
H                    -4.734091093667    -2.093005751848    -3.484377339814
H                     1.992070522435    -1.884129933980    -0.048607779065
H                    -2.005062606139     0.764917942620    -1.010626346470
H                    -1.221160415211     0.475662350163    -2.585359668887
H                    -4.060167453176     0.148808415257    -1.973428260191
H                     0.190441638686     0.393965760419    -0.633208222017
H                     2.177981287634    -3.990480667231    -0.731435217717
