28
1 1 C8H15N2O3
C                    -2.311586896721    -1.159393866912    -2.266675309345
C                    -3.715235644688    -4.096831088751    -1.777679222795
C                    -2.482015942317    -4.888838078461    -2.151671787368
C                     0.343355283741     0.662700818457    -0.041143977930
C                     1.914336110014    -0.658825950082    -1.241649892220
C                    -2.710152969261    -3.519278434270    -2.741136157360
C                     1.827210558971     0.253234616145    -0.011075843064
C                    -1.307818443480    -0.067622836071    -1.841893019898
N                    -1.852837791059    -2.442668483975    -2.285441346139
N                    -0.360502461612    -0.482038168245    -0.742022206874
O                    -3.448811503530    -0.802861832496    -2.525920537212
O                     0.655611198527    -1.384895813602    -1.245954045023
O                     2.596504437283     1.423651244356    -0.137248602592
H                    -4.675323344995    -4.395329681960    -2.184221625766
H                    -3.755735015983    -3.664930333924    -0.782951571695
H                    -1.705273635469    -4.992917435437    -1.399176491440
H                    -2.586061696541    -5.740920376688    -2.815116200349
H                    -0.112993278298     0.807176060833     0.937687263847
H                     0.230803852539     1.560720572292    -0.648716093557
H                     2.022987319961    -0.065743965925    -2.154907981183
H                     2.682915170457    -1.429917961972    -1.188594204071
H                    -2.999441952800    -3.442659442740    -3.785694733022
H                     2.057350209443    -0.306189511911     0.901409276748
H                    -1.893983922741     0.768151469382    -1.456285084344
H                    -0.687683327490     0.274625154941    -2.673406697373
H                    -0.850637596816    -2.596044846875    -2.329550462734
H                    -0.871428794795    -1.066144502560    -0.069426499551
H                     3.424757679334     1.343713338029     0.361892112718
