28
1 1 C8H15N2O3
C                     1.808946785435     1.547920892130     0.401263913212
C                     4.874449649559     0.601205933862    -0.224708424295
C                     5.447766632059     1.163976695018     1.055744471711
C                    -1.195521043798     1.451268717225    -0.629084645645
C                    -0.377144603336    -0.730639859078    -1.115907311431
C                     4.242446030669     1.810681841090     0.419545768733
C                    -1.506691293327     0.231688276995    -1.511411850385
C                     0.548975979124     1.551595318761     1.287821069527
N                     2.966148101827     1.657940919476     1.086905844360
N                    -0.588779381843     0.834301764028     0.616652606058
O                     1.709972305758     1.479313797031    -0.820485465651
O                    -0.203103949736    -0.527570014813     0.319052957927
O                    -1.453978189212     0.652516871830    -2.851872224974
H                     5.408450336963     0.759870062998    -1.155380708657
H                     4.328920064021    -0.334489030704    -0.161864973913
H                     5.293815852589     0.591163393970     1.966065087395
H                     6.382915771500     1.712647920987     1.018928454267
H                    -0.445489586379     2.070030904109    -1.114067743277
H                    -2.071041664332     2.027888834458    -0.328792665577
H                    -0.628950933148    -1.786757136134    -1.217835727091
H                     0.544964217897    -0.474594465260    -1.638927444711
H                     4.367463696889     2.771557623849    -0.071511976354
H                    -2.483177951971    -0.194000217842    -1.250219843062
H                     0.206067019318     2.574200020027     1.474396132045
H                     0.706745407182     1.045522937627     2.242210065743
H                     2.943182308311     1.756102371287     2.096095416493
H                    -1.327636971411     0.720133908119     1.318384699474
H                    -2.005441772194     0.077144464500    -3.405254625689
