27
0 1 C8H14N2O3
C                     2.007693982154     1.087866316873     2.029495728684
C                     4.743555364579     2.281724913421    -0.207045378020
C                     5.104618330692     1.481399226209     1.027771942101
C                    -1.366243946791     0.513260517984     0.317854858388
C                    -1.353599479597     2.887217902371    -0.002007486666
C                     3.860131461236     2.331506994926     1.017506227012
C                    -2.146317212510     1.620472019065    -0.406961267900
C                     0.589929564386     0.558463406831     1.797838456182
N                    -0.080017679791     1.148809364888     0.646140842078
N                     2.582379850846     1.681971401665     0.944940685290
O                     2.566607152571     0.920260040104     3.110223291524
O                    -0.508333708816     2.487741179353     1.073937176747
O                    -3.492520302857     1.585485028564     0.068720132643
H                     5.326106785745     3.166197587786    -0.446757579644
H                     4.371308312202     1.734097166702    -1.068366104909
H                     4.958890573484     0.407106823384     0.995311206561
H                     5.933914189435     1.814754822829     1.643367463763
H                    -1.931347008877     0.233757095300     1.217924279606
H                    -1.188674448503    -0.370555902555    -0.298894772312
H                    -0.749069323290     3.254530096794    -0.843190115506
H                    -2.001707527372     3.682427663064     0.372969829069
H                     3.881389266512     3.238743110734     1.618235927843
H                    -2.125575254471     1.486048683017    -1.495521346679
H                     0.670464255604    -0.517530750528     1.610630444802
H                     0.017729219885     0.701012931003     2.723368529793
H                     1.961878644770     1.881784652333     0.167675434938
H                    -4.027617979910     2.181803640462    -0.477591947236
