30
1 1 C10H16N3O
C                    -1.981862762834    -1.973996876979     0.114324883955
C                    -2.626041103601    -3.127279837214    -0.257761462594
C                    -1.164468305939    -1.354149993233    -0.857056087748
C                    -2.420919581080    -3.602219373641    -1.582315802125
C                    -0.855480547272     1.024551401347     0.261777991708
C                     0.328915969159     0.197159823839     0.686041930910
C                    -0.374320252269    -0.100725971576    -0.628617080537
C                     2.821038524145    -0.287337446779     0.519507687794
C                    -2.859647171725    -5.225950404643    -3.272610425758
C                     1.731725563781     0.776453048002     0.714588252662
N                    -1.027091229704    -1.859164083446    -2.076575566763
N                    -1.641065717525    -2.978358649001    -2.465289576748
N                     0.320290280081     0.246461597649    -1.908032461120
O                    -3.051429502041    -4.722909372827    -1.925655131173
H                    -2.101414621147    -1.563281901119     1.112349901757
H                    -3.276840165661    -3.679873446379     0.412097879957
H                    -1.817524229427     0.889938233559     0.746066168535
H                    -0.660120936677     2.043024572709    -0.066543684985
H                     0.144529123200    -0.558406186899     1.446677686873
H                     2.765810320124    -1.051670167029     1.300332363985
H                     3.816774083203     0.161402811704     0.560638081745
H                     2.731936263383    -0.809634559944    -0.442326207348
H                    -3.461539247342    -6.131575075300    -3.318039940037
H                    -1.804915217105    -5.449374912730    -3.444540381968
H                    -3.205349520440    -4.490692013873    -4.001867899333
H                     1.829870298884     1.577438455151    -0.031057923796
H                     1.869262747873     1.272010138198     1.681174815335
H                     1.340647586902     0.270152602074    -1.817563192745
H                     0.000302112561     1.129735743841    -2.315555942764
H                     0.030883718658    -0.566451686083    -2.545922530882
