29
0 1 C10H15N3O
C                    -2.247035616852     1.076012271094    -0.501012272226
C                    -3.607971085412     0.867070491288    -0.503130653268
C                    -1.393574838450    -0.047947392365    -0.560085128602
C                    -4.039080101171    -0.473948540973    -0.565427447716
C                     0.824019411608     1.266042162284    -0.061579330694
C                     0.850273258307    -0.013376483322     0.748822552081
C                     0.109581365898     0.034200310367    -0.575758415647
C                     0.985607223665     0.406855760548     3.239574289378
C                    -5.801344042563    -2.070718622812    -0.622821626978
C                     0.124491362442    -0.100135917819     2.075722035673
N                    -1.881904204049    -1.289056126802    -0.632954386292
N                    -3.203847630848    -1.505845451182    -0.636482797055
N                     0.778475737929    -0.661663392994    -1.661984478962
O                    -5.372539228424    -0.697864813442    -0.557740392008
H                    -1.836416268606     2.079980901491    -0.465302594992
H                    -4.334183736818     1.673257096572    -0.465146995725
H                     0.237910242095     2.090230635428     0.335977082312
H                     1.720704898024     1.558586554063    -0.597940529465
H                     1.779108572776    -0.576744320416     0.693282747352
H                     1.906234242873    -0.180020932884     3.333752190399
H                     0.447429375405     0.339314179638     4.191268186061
H                     1.274539748143     1.452676942451     3.086328463913
H                    -6.890725875341    -2.027277280231    -0.602056490977
H                    -5.421189833801    -2.636295362003     0.231738681124
H                    -5.451162494515    -2.542849884576    -1.544284889057
H                    -0.805704228506     0.478518981041     2.031829135595
H                    -0.173897648751    -1.140537425484     2.255792240247
H                     0.483301044366    -0.258933918205    -2.552051657132
H                     0.452857934529    -1.628871209713    -1.663884881328
