8
0 1 Br2C2ClF3
C                     0.371220559715     0.148731816856     0.623272787592
C                    -0.382934151278    -0.007271508720    -0.739840901369
F                     0.544173187927    -1.074801439551     1.161175802376
F                     1.581672280302     0.693310899579     0.415727040769
F                    -1.607740507511    -0.518662417160    -0.487194560946
Cl                    0.511172744551    -1.146645220600    -1.777643291663
Br                   -0.632559916433     1.244468210667     1.898247773407
Br                   -0.584753809091     1.726016265563    -1.631313717089
