19
0 1 C6ClH5N2O4S
C                     2.148688386798    -0.916087631260     0.012957703061
C                     3.138473395748    -1.816103034067     2.065242088482
C                     1.043659392454    -0.474147760318     0.742696510935
C                     2.036123916670    -1.374166078892     2.792145771241
C                     3.171758007287    -1.579440015032     0.688698352882
C                     1.005114002718    -0.714053132791     2.116905902981
N                    -1.111667834666    -1.702450046416     3.363788511131
N                     4.343036178331    -2.050694546577    -0.083561277940
O                     4.349057262469    -1.835083398215    -1.298200451881
O                     5.237443678566    -2.630002815247     0.537755644223
O                    -1.258288604876     0.663863928799     2.170612606103
O                     0.043438516775     0.381767421364     4.354673086824
S                    -0.401888813288    -0.119007070374     3.062334801874
Cl                   -2.267168592466    -1.669595624200     4.695706002292
H                     2.225804132851    -0.751149338985    -1.055192682758
H                     3.962422649042    -2.332658844377     2.543034858470
H                     0.230030057871     0.058029033161     0.260703343920
H                     1.974860785235    -1.532674381214     3.863740365145
H                    -1.665515054060    -1.933849408530     2.531369295030
