18
0 1 C5H7N5O
C                    -0.839857293932     1.760424172150    -0.876667125295
C                     0.918790112816     0.358459408945     2.026186709501
C                     0.651069185860    -0.725378657538     4.006424914174
C                     1.078884592076    -0.503168690526    -0.341479678619
C                     0.784839522521     0.693497201708     0.573226768370
N                    -1.038819934568     2.221047020231    -1.932683615259
N                     1.611847351299     1.057266443578     2.878465147262
N                     0.296800426498    -0.713983318442     2.643394485955
N                     1.443464327054     0.405665064198     4.081840990652
N                    -0.566651434604     1.276331621555     0.347222129789
O                     0.333391347832    -1.526614069169     4.870721770738
H                     0.366388330390    -1.319595832648    -0.178427717889
H                     1.004211660322    -0.199461490701    -1.388778519091
H                     2.088506152734    -0.882902706124    -0.159749836727
H                     1.501962639857     1.493856041873     0.380092194485
H                    -0.193557370601    -1.485101582813     2.211046116001
H                     1.913606009508     0.736982677668     4.912661705278
H                    -1.337462347560     0.774483275795     0.777292984529
