18
0 1 C5H7N5O
C                    -1.581053762103    -0.178117799963     0.039541650503
C                     0.898093854520     0.622942829726     1.779419818936
C                     1.992295708505     0.279939840421     3.739251394584
C                     1.198125230687    -0.398469592951    -0.522243856771
C                     0.629720198059     0.761289956581     0.299007624644
N                    -2.234940499104    -1.142043294489    -0.046705244115
N                     0.020461658163     0.907540059322     2.699277414479
N                     2.106592133310     0.258164827923     2.335167964581
N                     0.689579237142     0.717195312983     3.891938202536
N                    -0.815569356447     0.935918875319     0.049868951236
O                     2.832002689651    -0.008846012009     4.576839518427
H                     0.792228397455    -1.357773068507    -0.192380342899
H                     0.951704067469    -0.256854902655    -1.577139353608
H                     2.287902972687    -0.430420492707    -0.433115571073
H                     1.102284776581     1.689946509697    -0.042844483605
H                     2.938797138477    -0.068125787259     1.863879248188
H                     0.196487567695     0.789198625086     4.770860622894
H                    -1.219736944390     1.661053709166     0.639303433299
