17
-1 1 C5H6N5O
C                     1.103125596835    -4.200295758771     0.992887961236
C                    -0.318039705280    -0.963793946363     0.411824771598
C                    -0.955400036904     1.183543884942     0.636517770377
C                    -1.038299038981    -2.939898081080    -1.014677467898
C                     0.046372979036    -2.317220104548    -0.126354944657
N                     1.776709748978    -5.157631229572     0.900981484599
N                    -0.620426835511     0.672982170732     1.856240305272
N                    -0.231285155088    -0.647965127594     1.680954815201
N                    -0.755774136135     0.118135584301    -0.306309397008
N                     0.284335863680    -3.154787902694     1.072602020311
O                    -1.361785872213     2.316412691251     0.297117779363
H                    -1.981164799261    -3.006122312366    -0.464382530451
H                    -1.197299936493    -2.328841910324    -1.910549333769
H                    -0.740736295669    -3.944283935956    -1.336331347691
H                     0.978591614461    -2.255753086425    -0.710157049702
H                    -0.941665078356     0.194157965568    -1.295234180777
H                     0.319182960893    -2.563681077768     1.915698958294
