17
-1 1 C5H6N5O
C                     0.705084648008    -4.468434873310     0.944772189974
C                    -0.332573763750    -1.030277749654     0.513606012493
C                    -0.405945147112     0.537565140427     2.008214173935
C                    -1.060125381669    -2.851772321608    -1.101188125605
C                    -0.024044214338    -2.383813071806    -0.081970751165
N                     1.222752127343    -5.513503612845     0.807470733163
N                    -0.007841136237    -0.770621716227     1.806159233351
N                    -0.888357142014    -0.053090195795    -0.184992182354
N                    -0.870657979394     0.973820917861     0.756190762645
N                     0.058539810880    -3.312040917296     1.076789156157
O                    -0.375343167692     1.242043356643     3.037126080167
H                    -2.042864512478    -2.930585392980    -0.627704625565
H                    -1.125144274271    -2.123471039502    -1.914062684149
H                    -0.783352243512    -3.828806339991    -1.513727683321
H                     0.961229733520    -2.340558957414    -0.568863506472
H                    -1.447916030339     1.790071293628     0.612933500996
H                     0.219923191198    -2.766459170761     1.935582844902
