18
-1 1 C5H7N2O3S
C                     3.655669526359    -4.031482942087    -0.434709055949
C                     3.262104866390    -2.814452770880    -2.271267821394
C                     3.800037335177    -4.071254752927    -1.908534565625
C                     1.866314997971     1.141053674896     1.050963720745
C                     1.811841215441    -0.298428725942     0.547207823435
N                     3.110250327188    -2.932865638748     0.042024454724
N                     2.763593168155    -2.194900305458    -1.096150961822
O                     4.270527449074    -5.029920136018    -2.597067079660
O                     4.302670577743    -0.098183915384    -0.398736864485
O                     2.393993943913     0.145038318679    -2.035328801452
S                     2.960267799994    -0.514856717539    -0.844315220341
H                     3.946701063993    -4.822745691676     0.252514443004
H                     3.044901900060    -2.381801272346    -3.236925810357
H                     2.873246142313     1.393554322250     1.393477834976
H                     1.581535614996     1.846177317972     0.264271961567
H                     1.172272219851     1.264057938248     1.889846370799
H                     0.828418239506    -0.571355290830     0.159129376447
H                     2.119255518590    -1.028683285801     1.297176414601
