18
-1 1 C5H9N2O2
C                     2.943856453618     1.962196616773    -0.883113117567
C                    -0.230354120703     0.536945447454    -0.365501683390
C                    -2.146920416321     0.294366232496     1.244610067202
C                    -1.561596858002    -1.596443045031    -0.328311601158
C                    -1.007670664202    -0.440880050699     0.520437875495
N                     1.054828772882     0.662850565024    -0.033492213050
N                     1.657613300573     1.576030716768    -0.905693400193
O                     3.857453978012     1.615952824519    -0.119716813433
O                    -0.845147785430     1.133047123155    -1.313417672838
H                     3.121343712476     2.699218691684    -1.700581616937
H                    -2.812234110756     0.761670720751     0.510651515582
H                    -1.748796100916     1.085217869602     1.890909794738
H                    -2.736749283575    -0.393925664662     1.866379975641
H                    -2.208443865901    -1.199871944116    -1.118289990031
H                    -0.746503300661    -2.151645646014    -0.806875313549
H                    -2.143925638441    -2.299516983683     0.283868631953
H                    -0.305252153859    -0.839283247786     1.261019926590
H                     1.021647938286     1.961978066585    -1.608347722485
