16
0 1 C5FH9O
C                    -0.298121157564     1.180780712051    -2.790627609449
C                     0.403463798129     0.246522251941    -1.891357277571
C                    -0.233891194097    -0.316267723639    -0.640410794822
C                     0.188579919174     0.428248865853     0.636883087865
C                    -0.274485573868     1.876113539543     0.651143096041
O                    -0.133754688891    -0.203923555275    -3.148029209026
F                     0.079580092572     2.476899677124     1.871740863583
H                    -1.321767216080     1.475984510361    -2.557700004718
H                     0.269935925174     1.886464341036    -3.396527959016
H                     1.495185837744     0.291480539206    -1.878832811892
H                    -1.323936683891    -0.296799145889    -0.756266027520
H                     0.052485700792    -1.370433326349    -0.551108303986
H                    -0.232369306898    -0.079160957762     1.511375961587
H                     1.279129439677     0.402722087475     0.748482555723
H                    -1.364164714279     1.948387435829     0.558144863317
H                     0.191217661190     2.466959019721    -0.143576519552
