19
-1 1 C4Cl3H6NO4P
C                     0.344260044477     1.493601184836    -2.047112048611
C                     1.898640327646     2.672186049593     1.931278231715
C                     0.442459671132    -0.993497996724     1.232631717697
C                     0.147681849894     0.538917436913    -3.323005379141
N                    -0.034987810725     0.852750797214    -0.951128761881
O                     0.779356368184     2.624649563332    -2.270115538018
O                    -0.891182974777     2.619712514585     0.974533740731
O                     1.591101863648     1.837547167931     0.813263514377
O                    -0.260853381535     0.220885531706     1.512568779938
P                    -0.000013906777     1.511513140195     0.533095344573
Cl                    0.910544748691    -1.088850517692    -3.056889811798
Cl                    0.877679425424     1.252015468340    -4.809190341166
Cl                   -1.627200348545     0.301942314451    -3.621157064938
H                     2.970160265229     2.887876341699     1.878370676142
H                     1.676922797071     2.161155135118     2.877750615149
H                     1.326762230899     3.603851006902     1.888955347503
H                     0.119181555976    -1.724458817656     1.980613243146
H                     1.526406335363    -0.844031443770     1.313734083768
H                     0.206806724390    -1.349142759712     0.225318327489
