7
0 1 CH4N2
C                     0.341713992997     0.117978746759     0.037817813405
N                     0.935058406716    -1.008281493456     0.203448973277
N                    -1.012418442136     0.206884502856    -0.153690069734
H                     0.831517286464     1.101609652296     0.030764685537
H                     1.936117292718    -0.862196827387     0.329135127901
H                    -1.562594092456    -0.641790799027    -0.165137919086
H                    -1.472343522438     1.093546420384    -0.283319652931
