30
0 1 C12FH10NO4S2
C                     2.887382042558     0.100246880989     0.297863559389
C                     6.944846527335    -3.360081630062     8.023353583222
C                     2.453948113183    -1.221774641783     0.451803660064
C                     2.856060487967     0.991243252006     1.376206866680
C                     6.093889132855    -2.308123357793     8.384914584467
C                     7.052699917969    -3.762054661904     6.687606246084
C                     1.987876089235    -1.665183582747     1.689606492172
C                     2.397329554251     0.566218260723     2.623528030443
C                     5.341179207942    -1.650582017140     7.411328081527
C                     6.306673506518    -3.115594228541     5.699331545935
C                     1.971930445263    -0.758605784557     2.753270333678
C                     5.466311620948    -2.068943974118     6.083603594788
N                     2.937141337693    -2.101969347033     5.092637319426
O                     1.186275471244    -0.214923281490     5.240057888071
O                     0.540019866505    -2.463433022006     4.200047220111
O                     4.208272528419     0.131593603248     5.252833691758
O                     5.034827482048    -1.552910451132     3.515329015410
F                     3.115160705403    -3.346109679501     4.431204049725
S                     1.445770132081    -1.334832633162     4.350021878439
S                     4.507867391597    -1.234930664588     4.838076008387
H                     3.251564571830     0.437705204398    -0.668787652864
H                     7.527140080446    -3.868087794060     8.787345878481
H                     2.478846303120    -1.906890126275    -0.390602310068
H                     3.194111780900     2.015561958258     1.249613982782
H                     6.016516275471    -2.000292608054     9.423596409075
H                     7.716084507467    -4.577388021190     6.414100957123
H                     1.643198164098    -2.683666750266     1.833458432587
H                     2.381123740304     1.231056796358     3.480016427463
H                     4.677632774886    -0.830391324362     7.666299684823
H                     6.374593644929    -3.404022283092     4.655591247577
