15
1 1 C3H7N4S
C                    -1.089826256967     1.763950852504    -2.267970571112
C                    -0.018664238973     1.104780201678    -1.705930423764
C                    -0.016890664510    -0.270727833577    -1.137323853995
N                    -0.798984429362     3.034953929427    -2.683540642045
N                     0.400465014377     3.414560402734    -2.485473893135
N                    -1.725197453790     0.122132475649     0.595885565019
N                    -0.341320650284    -0.235503829896     0.369446085650
S                     1.347488250120     2.147294888574    -1.734760993054
H                    -2.093474057804     1.376481292690    -2.401691689001
H                    -0.778622245932    -0.908491948580    -1.590037418397
H                     0.953583540876    -0.766734285186    -1.214782745010
H                    -1.839638783190     0.361881539757     1.582622793700
H                    -2.295129977604    -0.701478173023     0.396720381806
H                    -0.061956877466    -1.128140946606     0.807547082851
H                     0.234385382111     0.504900375322     0.791286589022
