48
0 1 C24Cl2H16O4S2
C                     3.845333973059    -2.979483494539    -1.162873471661
C                     5.134568400831    -2.181046139160     0.711277450151
C                     2.447243903600    -1.876526594107     2.091676426944
C                     1.648678085162    -1.186941102090    -0.075963753724
C                     5.001495906033    -3.482972649492    -1.759066303428
C                     6.300389961067    -2.672968205261     0.123217982153
C                     1.288403201501    -1.381180470989     2.689509517560
C                     0.487740655952    -0.680244593480     0.509182837152
C                     9.215926522570    -0.704787139288    -1.528716130386
C                    10.579659708708    -1.890730514791    -3.153211795998
C                    -0.551852517648     3.025123092170     1.052172700167
C                    -2.152764548892     3.489650283796     2.820387535632
C                    10.370428331382    -0.215795095652    -0.911856362034
C                    11.735270233737    -1.409572855090    -2.535032672441
C                    -1.273806514908     3.843300059283     0.179321789245
C                    -2.880267000956     4.302253945942     1.948888238558
C                     3.886904748285    -2.320788880948     0.079297152101
C                     2.651289264885    -1.790432912166     0.702605812617
C                     6.224942657842    -3.324577543467    -1.107714600439
C                     0.313946964064    -0.784420440629     1.889211717986
C                     9.330345499525    -1.532539959619    -2.645084741467
C                    -0.994155584077     2.859703111048     2.364251448827
C                    11.620395317697    -0.575407290692    -1.419358770494
C                    -2.433814491973     4.472399654184     0.635307616181
O                     7.429070933016    -3.842692219880    -1.605915846279
O                    -0.903359395313    -0.305805789641     2.394859206862
O                     8.144756805048    -1.946066829715    -3.263723603602
O                    -0.203556031119     2.080124673647     3.216624455847
S                     7.798600750376    -3.594985245999    -3.224260546498
S                    -0.878442112662     0.642090927174     3.779674892450
Cl                   13.074631348505     0.030581653723    -0.643214788442
Cl                   -3.348801291757     5.495958763593    -0.459928107196
H                     2.889703606483    -3.131163505805    -1.656904383031
H                     5.202154945928    -1.651390499374     1.657468126097
H                     3.190652179050    -2.368453200548     2.712688378988
H                     1.790984812246    -1.079957964547    -1.147730002132
H                     4.954007125097    -3.994011268787    -2.715548110844
H                     7.268718612160    -2.557567720999     0.601026971421
H                     1.141743139883    -1.459209111231     3.762195015575
H                    -0.284949227693    -0.202336399359    -0.085658645356
H                     8.228674266877    -0.447741288328    -1.157283518780
H                    10.647299192694    -2.541187379116    -4.020099017343
H                     0.352143250302     2.518309021550     0.728700017134
H                    -2.483430427710     3.343225727204     3.844297775287
H                    10.299945361281     0.432378723558    -0.044209247507
H                    12.715615499139    -1.674620955581    -2.917777690492
H                    -0.942192779162     3.986129825122    -0.844172252534
H                    -3.782007913061     4.803017526045     2.286407020463
