48
0 1 C24Cl2H16O4S2
C                     4.152073839853    -3.170934671048    -1.642541714476
C                     5.585964139350    -2.419486473942     0.147897314979
C                     3.007005609674    -2.069488386341     1.734683008209
C                     2.089824359624    -1.388772290675    -0.392427325849
C                     5.268569379379    -3.547372621721    -2.386470700302
C                     6.711210798828    -2.794859952905    -0.585811920091
C                     1.925782228956    -1.486730945903     2.396238830060
C                     1.008464318891    -0.796083262931     0.256961404861
C                     6.040224864455    -0.206538331000    -2.847911137756
C                     5.107640736914    -0.968989715140    -4.954612281572
C                     0.588792902321     2.776785910566    -0.081160374476
C                    -1.260583053760     3.243683202250     1.424102748936
C                     4.832100645160     0.425883359053    -2.546582975792
C                     3.904933159673    -0.323545598361    -4.662610825611
C                    -0.115147294134     3.360545316302    -1.136262456804
C                    -1.970212101025     3.819553395999     0.367659800349
C                     4.290884076144    -2.566831661294    -0.381145802186
C                     3.112508559183    -2.023653490568     0.332677043266
C                     6.541136825848    -3.319972405250    -1.866259857706
C                     0.937280887499    -0.846516909752     1.647777266796
C                     6.164472694252    -0.916199171232    -4.043017629419
C                     0.014284159824     2.728261561580     1.189557280135
C                     3.774223303534     0.362841647138    -3.453947697537
C                    -1.392120633016     3.874937024658    -0.903089514935
O                     7.644412587300    -3.572870776904    -2.699229889074
O                    -0.178380568199    -0.244279657132     2.246032275694
O                     7.313335701834    -1.621218185391    -4.434753796913
O                     0.813719712759     2.177118517110     2.199540432873
S                     8.397460704077    -2.176748987372    -3.275132119211
S                     0.128674280746     1.066443503559     3.259592586999
Cl                    2.248712568849     1.154887801253    -3.069774779451
Cl                   -2.288658129734     4.598811247262    -2.229181622273
H                     3.161111152312    -3.329832019164    -2.056971371478
H                     5.719338159323    -1.952125374309     1.119466663185
H                     3.768206659192    -2.583587904209     2.315160673846
H                     2.163119149877    -1.309352840428    -1.471682453100
H                     5.168515621614    -3.969539892021    -3.381368249038
H                     7.712209268668    -2.631441928547    -0.197019036243
H                     1.850565239528    -1.519005622735     3.479168907826
H                     0.233964204677    -0.275547775408    -0.297389326649
H                     6.857604472638    -0.175334354294    -2.137262524760
H                     5.231635667631    -1.527096901039    -5.877501983156
H                     1.576304851730     2.354700318768    -0.236406468631
H                    -1.700671174889     3.186881563878     2.414630299348
H                     4.716118087133     0.956473033658    -1.607195661363
H                     3.076565366630    -0.363493376498    -5.362695246405
H                     0.322877184043     3.408746306261    -2.128020778157
H                    -2.963160055081     4.225817097208     0.531754737611
