48
0 1 C24Cl2H16O4S2
C                     4.581266879560    -2.972143653165    -1.418670506738
C                     5.987960846580    -1.999234687558     0.284533648954
C                     3.355367629510    -1.323871341089     1.668042388543
C                     2.581638346572    -0.861614494325    -0.570271546486
C                     5.693076660722    -3.584312249670    -1.994880215294
C                     7.108765608427    -2.603507340942    -0.285474129152
C                     2.250900483777    -0.650569923037     2.192094883060
C                     1.479264281920    -0.177164487218    -0.059811619513
C                     6.871916932859    -0.612669557987    -3.241114353815
C                     6.048569814438    -1.915537040651    -5.116655371242
C                    -0.848473177356    -2.030199523791     4.122145947531
C                    -2.883988534942    -0.706440844531     4.028949908366
C                     5.667328834439     0.091660853743    -3.205976187969
C                     4.849475898408    -1.201004933691    -5.093529496327
C                    -1.020320878261    -2.203136419565     5.498111752825
C                    -3.055010248430    -0.871554405589     5.404614114400
C                     4.710816207742    -2.153127225785    -0.283742788321
C                     3.537046532804    -1.446620906158     0.280305094407
C                     6.953036486606    -3.371387151911    -1.438662239663
C                     1.321929805778    -0.078568734379     1.322876757813
C                     7.045580907537    -1.627750020789    -4.183035908489
C                    -1.782510277347    -1.288269314375     3.399861352101
C                     4.663577510664    -0.210481584946    -4.127783658656
C                    -2.121168462456    -1.619111970132     6.127611500949
O                     8.066602474635    -3.919680714688    -2.099823337648
O                     0.271567531975     0.634590464642     1.918741081659
O                     8.190771848619    -2.433918750467    -4.269175110253
O                    -1.599283266123    -1.195773794709     2.015523926292
S                     9.051551645271    -2.787040989193    -2.866659357153
S                    -1.292178907358     0.336876318438     1.385772993621
Cl                    3.139707923847     0.666392718519    -4.068862792558
Cl                   -2.338133066203    -1.827184327657     7.858094064505
H                     3.601122225238    -3.128857129267    -1.859251117221
H                     6.113930735440    -1.363935294791     1.156881418185
H                     4.065258428990    -1.787721154134     2.347487485217
H                     2.718860352717    -0.906969685665    -1.646110861301
H                     5.601945169401    -4.192539872983    -2.888995588542
H                     8.099418542087    -2.450481706114     0.132872857404
H                     2.096537819225    -0.561445632627     3.263308898006
H                     0.754448489013     0.278045634720    -0.727499541589
H                     7.644778645636    -0.400320490789    -2.511331804152
H                     6.212244135195    -2.709850110560    -5.838368217155
H                    -0.002363913977    -2.468678856239     3.602039940233
H                    -3.597528148876    -0.128161899620     3.449655625849
H                     5.508788157055     0.863129766809    -2.459562990311
H                     4.063837662264    -1.423120283818    -5.808608502642
H                    -0.304877406434    -2.780297128361     6.075119206609
H                    -3.907196979780    -0.429201633545     5.910503701849
