48
0 1 C24Cl2H16O4S2
C                     4.176776959194    -0.361768650383    -1.817859214476
C                     4.856456650710    -2.036592397254    -0.223748655588
C                     2.722527323240    -0.826634785303     1.563471658775
C                     1.462870694731    -0.553780558940    -0.475284443550
C                     5.333750491256    -0.593229550514    -2.561341161978
C                     6.015519400858    -2.286993057765    -0.959859064001
C                     1.569406767492    -0.588298650806     2.312783519856
C                     0.305111487973    -0.304983982724     0.261302404273
C                     8.692974912447    -4.490031420793    -4.127669409296
C                     9.918572706116    -5.680763897678    -2.397794325303
C                    -0.282547339959    -2.934064272756     4.831288003593
C                    -2.549709195999    -2.146668871934     5.207901953314
C                     9.010942025197    -5.500104623617    -5.039612852732
C                    10.227729251146    -6.693947069677    -3.307332605398
C                    -0.095669852665    -3.067429153839     6.209550279227
C                    -2.362734408891    -2.270394329739     6.585941826351
C                     3.917500239992    -1.074342177234    -0.633761741379
C                     2.691074246946    -0.817688155539     0.158320132198
C                     6.247144218922    -1.553575277629    -2.124870083503
C                     0.369160404041    -0.323856738686     1.654687675571
C                     9.157378625862    -4.587146874471    -2.814228362701
C                    -1.507348425587    -2.480613987841     4.341993461096
C                     9.774222682943    -6.592858796923    -4.624445152275
C                    -1.137532302190    -2.730923201239     7.075723381218
O                     7.360545876260    -1.769534614012    -2.948802805301
O                    -0.742127216800    -0.026286502224     2.456478823817
O                     8.848441699957    -3.642267975912    -1.828708051101
O                    -1.649862817685    -2.432946154505     2.950320639002
S                     8.861782432067    -2.010135732806    -2.235310637395
S                    -2.118322277536    -0.969636634280     2.262424524064
Cl                   10.168340555351    -7.860940492846    -5.774310320950
Cl                   -0.906042366105    -2.888653200303     8.809654534446
H                     3.485473022396     0.410137077304    -2.144041671128
H                     4.663471389467    -2.628031519010     0.666890377935
H                     3.663116668995    -0.998774258647     2.079090719587
H                     1.405731695304    -0.565523159998    -1.560060116799
H                     5.545110076446    -0.030991850730    -3.466043455590
H                     6.717383132397    -3.051120060375    -0.643604797338
H                     1.589015227946    -0.584639263392     3.398544071271
H                    -0.640717310138    -0.114463565427    -0.237037575956
H                     8.086074492037    -3.645974264303    -4.436412582257
H                    10.264554423356    -5.728796117150    -1.369801753348
H                     0.507992976902    -3.183925865735     4.130375071207
H                    -3.494393928856    -1.787674988714     4.811381812165
H                     8.658172964633    -5.440615230691    -6.064282472268
H                    10.821921221545    -7.547797782890    -2.998037669944
H                     0.850333722095    -3.422453731719     6.605729503250
H                    -3.163218669346    -2.017412930181     7.273761289970
