48
0 1 C24Cl2H16O4S2
C                     3.881006311549    -3.034900461362    -1.318074670422
C                     4.633918387448    -0.782312219789    -0.909959896746
C                     2.381573715561    -0.679247374901     1.122986533028
C                     1.153053202073    -1.992495388234    -0.483301134326
C                     5.062761561643    -3.310063419102    -2.005397908695
C                     5.826706670170    -1.043210417342    -1.586464874255
C                     1.199145082175    -0.411213529586     1.813774940096
C                    -0.037511472718    -1.726462467787     0.192830164695
C                    10.322224182234    -2.348777640424    -1.925200843121
C                    11.061556136837    -0.046548417157    -2.180840797235
C                     0.141170800576    -1.657480963937     5.310546255780
C                    -2.250449942300    -1.574624481248     5.731808304960
C                    11.584110800551    -2.692767666938    -1.432939018792
C                    12.318912680725    -0.389422853442    -1.680013340150
C                     0.382792633417    -1.041279100443     6.541117738426
C                    -2.012695870984    -0.951696812449     6.958426706841
C                     3.641587633940    -1.766288032448    -0.760894729998
C                     2.382450715661    -1.476931250725    -0.034193796196
C                     6.027656355357    -2.310359814146    -2.136344894434
C                    -0.003697556967    -0.934647193689     1.340813870257
C                    10.075027255808    -1.026904446024    -2.301871065547
C                    -1.170729927578    -1.922757986488     4.919128367211
C                    12.571612536840    -1.713217268040    -1.313309180926
C                    -0.697497463915    -0.690580313422     7.352968175023
O                     7.211663153939    -2.678136112858    -2.790836486278
O                    -1.160015195043    -0.577589935015     2.049318363031
O                     8.827426697061    -0.589593240518    -2.761467045250
O                    -1.349679943374    -2.597029619205     3.705629353197
S                     7.956056132926    -1.573015084014    -3.811903160441
S                    -2.218563152364    -1.799550122204     2.502574762708
Cl                   14.154355744814    -2.150697921380    -0.689539824023
Cl                   -0.399876331189     0.092245695105     8.896758844315
H                     3.144600415873    -3.824213356975    -1.196417877459
H                     4.466492226727     0.213126253892    -0.508337439515
H                     3.319832284416    -0.291156825631     1.509502870057
H                     1.120833385042    -2.583896647360    -1.394070825666
H                     5.251417497123    -4.290038599131    -2.433591676617
H                     6.584789733478    -0.273903690607    -1.685676425322
H                     1.193579630198     0.194043366951     2.715359226331
H                    -0.980980870734    -2.125452543567    -0.166807843609
H                     9.543481590821    -3.099258109998    -2.004852930253
H                    10.839350064570     0.972914611928    -2.481017152083
H                     0.958037794795    -1.939512647163     4.653402771722
H                    -3.265327370391    -1.783324606990     5.407109063238
H                    11.793169734900    -3.715334701371    -1.135300026336
H                    13.095976388644     0.362080383386    -1.584035972025
H                     1.397827666356    -0.830799642789     6.862536536535
H                    -2.839680490050    -0.676147020876     7.604960918090
