48
0 1 C24Cl2H16O4S2
C                     5.787771980636    -2.281108649517    -2.007760367435
C                     5.212221145333    -4.523166926069    -1.326236403380
C                     3.605231889541    -3.134685688152     0.834089071832
C                     3.100576803732    -1.488344915229    -0.851048783384
C                     6.893505971318    -2.770908963716    -2.700419738741
C                     6.318218491638    -5.024851136934    -2.012247134001
C                     2.630241066703    -2.596404189952     1.674548701724
C                     2.115609043100    -0.943384660869    -0.029048230461
C                     9.312040836466    -1.560136810452    -0.616364897701
C                     8.393923403137    -3.590359924963     0.343754034645
C                     1.106665279072    -1.484547814737     6.674424664021
C                     1.189538134504     0.303363271681     5.028457823590
C                     8.460814699340    -0.792643637520     0.181627631314
C                     7.532679047103    -2.824727847114     1.130309938157
C                     1.289843553075    -0.555465554431     7.700347766783
C                     1.363319216098     1.233407279817     6.056949610742
C                     4.948816351753    -3.141982734965    -1.280641881063
C                     3.863127233970    -2.593917305775    -0.436525832440
C                     7.173649941848    -4.135008657991    -2.661345648053
C                     1.888726388399    -1.500810711030     1.230417634956
C                     9.253252688012    -2.952871199073    -0.551860031965
C                     1.056230341059    -1.049392408394     5.348927727583
C                     7.557073047577    -1.432541172782     1.032008074465
C                     1.413402505272     0.798998230304     7.382716872065
O                     8.380563763526    -4.568999281792    -3.239530859805
O                     0.929852377193    -0.855129734532     2.022779617906
O                    10.087219160068    -3.636706175259    -1.453181311834
O                     0.928550331374    -2.049822272030     4.378463692984
S                     9.535209699043    -5.081717065045    -2.119853801053
S                    -0.047160209514    -1.767286579261     3.037581373655
Cl                    6.415663336963    -0.483384098729     1.968149347091
Cl                    1.639684056995     1.971989908907     8.670589033652
H                     5.621565631595    -1.208790628032    -1.968666691899
H                     4.546308565173    -5.213126694543    -0.815411148336
H                     4.205663838232    -3.965530146960     1.193678739798
H                     3.258481674697    -1.065106230413    -1.839053365026
H                     7.581890114648    -2.102401372600    -3.207125036985
H                     6.539031023348    -6.088282643186    -2.015426229596
H                     2.470356670795    -3.004241071507     2.666528721869
H                     1.515714124609    -0.097507695701    -0.351283903555
H                     9.996266086136    -1.090178064560    -1.316102093576
H                     8.352851811357    -4.672623832123     0.389933985710
H                     1.000874912253    -2.542925805630     6.892200432930
H                     1.169127462565     0.629420535588     3.994467853468
H                     8.480880532949     0.290831762654     0.121310134263
H                     6.833560041337    -3.308661417000     1.804105914646
H                     1.328247557244    -0.879766902517     8.735297447402
H                     1.470086825056     2.288409077772     5.825653004259
