48
0 1 C24Cl2H16O4S2
C                     4.633120695137    -1.971085042335    -0.789482285238
C                     2.461588230873    -2.263013217835    -1.792813315305
C                     1.734444873172     0.295531263751    -0.328720353511
C                     3.123483091271    -0.567772216061     1.441222039167
C                     5.180416293196    -2.908492879447    -1.667045259925
C                     2.989714897777    -3.208030771407    -2.671844285783
C                     1.192478719346     1.244044985318     0.540099994518
C                     2.599934627463     0.379701502950     2.320473364328
C                     9.432588622164    -4.590095688019    -4.414579074509
C                     7.327933526158    -4.276247822971    -5.591030323212
C                    -1.938272647372     2.941386677741     3.577265985230
C                    -2.923630268731     4.384798452206     1.886736893758
C                    10.134483855622    -4.372105829885    -5.601562452567
C                     8.031417222600    -4.067484846852    -6.780443233220
C                    -3.148660670899     2.943899840858     4.275845478954
C                    -4.135109132868     4.378917044392     2.580665142055
C                     3.270716622231    -1.628841766293    -0.833463298613
C                     2.705365661789    -0.625806694456     0.099980022213
C                     4.346800416918    -3.525507601471    -2.601366602163
C                     1.638399055974     1.281215371573     1.862329171719
C                     8.037242040203    -4.542848222475    -4.417950494269
C                    -1.835455240457     3.669472828143     2.389969429515
C                     9.426517864161    -4.115640814415    -6.777914665754
C                    -4.236721185225     3.660142269729     3.773877353933
O                     4.816582666335    -4.440610433942    -3.553907092422
O                     1.117203446340     2.168010546506     2.815215156488
O                     7.415545909651    -4.717075680922    -3.176245281864
O                    -0.676119995796     3.683671367095     1.606120383854
S                     5.969511305384    -5.572692501909    -3.098680190274
S                     0.821803550831     3.759084231467     2.367932156791
Cl                   10.305081338325    -3.845548437999    -8.274892943130
Cl                   -5.757293135461     3.654799511398     4.653438448849
H                     5.288825796161    -1.469813552653    -0.083016209538
H                     1.398537049574    -2.042458072629    -1.831029974866
H                     1.408500387513     0.287576095117    -1.365031093791
H                     3.853116539962    -1.283663467060     1.808981965136
H                     6.239729710644    -3.139350342930    -1.638193004952
H                     2.363297665114    -3.711411788997    -3.402254915877
H                     0.439554514704     1.943981485206     0.194183704748
H                     2.919406011103     0.424630891847     3.357410851513
H                     9.956305713581    -4.798583613699    -3.486662041254
H                     6.245020927115    -4.221328145139    -5.580358988499
H                    -1.093414872221     2.372898379078     3.950078484622
H                    -2.813439221894     4.940827940206     0.960736455692
H                    11.219043169477    -4.409112393459    -5.613466976560
H                     7.495928790511    -3.858046264897    -7.700945991036
H                    -3.246063541887     2.382997704976     5.199880838616
H                    -4.987834619536     4.933586472876     2.202524865338
