48
0 1 C24Cl2H16O4S2
C                     4.204929641894    -1.749045062918    -1.443293794406
C                     4.578557820332    -3.562593287622     0.102216251021
C                     2.896984931440    -1.915619835717     2.023005925832
C                     1.598175581802    -1.360649945704     0.067867173064
C                     5.221581723970    -2.228983080275    -2.268511406097
C                     5.603555963664    -4.049603938320    -0.710317766113
C                     1.879140692485    -1.437032040472     2.847563050279
C                     0.575187359352    -0.871294436701     0.881550287927
C                     9.422317096710    -4.509417007682     0.026966315020
C                    10.736400723192    -4.643247400665    -2.011724677341
C                    -0.932735541015     2.731570930020     1.166889931982
C                    -2.096936395500     3.070407744188     3.272386753134
C                    10.105825951564    -5.612965824574     0.544253125437
C                    11.415346932759    -5.751176127370    -1.501276577479
C                    -2.002536197717     3.309210739987     0.478095020135
C                    -3.170720825246     3.640223716722     2.585860603910
C                     3.863400442872    -2.403957408854    -0.245978882198
C                     2.777367111188    -1.887965976623     0.621559592248
C                     5.914333055692    -3.380253272655    -1.893209747065
C                     0.721869440033    -0.917291482955     2.267261780573
C                     9.745338380999    -4.031473469815    -1.242728598797
C                    -0.986631139234     2.621032965187     2.556069784361
C                    11.094595839871    -6.226766583517    -0.226840135311
C                    -3.114774289620     3.755484963876     1.194151676055
O                     6.907004091314    -3.951054287399    -2.702291285073
O                    -0.364096035257    -0.473348639228     3.035060886725
O                     9.070445144980    -2.885286204465    -1.678736340289
O                     0.141946087524     2.092351863444     3.193302123893
S                     8.217250738510    -2.989367450604    -3.126515594194
S                    -0.078848251073     0.735696316662     4.165717663502
Cl                   11.951121824348    -7.619645125302     0.414128777423
Cl                   -4.466501804834     4.474350365427     0.333497093314
H                     3.683821785717    -0.837833540358    -1.723222829028
H                     4.316788607674    -4.104502570774     1.006687188356
H                     3.808385756564    -2.295842906309     2.475788209186
H                     1.466908761357    -1.353237654679    -1.010551282682
H                     5.486283837817    -1.709039953722    -3.184350911454
H                     6.152610398601    -4.950343102090    -0.452497284384
H                     1.986466668068    -1.451052124993     3.928038322591
H                    -0.342884130812    -0.472623528864     0.460312072888
H                     8.646307081160    -4.010485957675     0.599258360640
H                    10.971227798937    -4.262149118592    -3.000811706843
H                    -0.054009487737     2.372014489091     0.640371551040
H                    -2.125121453262     2.971065576309     4.353147897559
H                     9.868513722052    -5.995096848891     1.531975438662
H                    12.190528500218    -6.237696273128    -2.084584812016
H                    -1.974826097668     3.405555653437    -0.602587716103
H                    -4.041280832771     3.997335094349     3.126626758451
