48
0 1 C24Cl2H16O4S2
C                     3.353718575735    -1.936025591599    -1.594792165595
C                     4.794132545426    -1.891257861048     0.336751781873
C                     2.230218740813    -2.171131088642     1.934391524123
C                     1.272907247031    -0.726683571498     0.256481255919
C                     4.452467490738    -2.157700835624    -2.426587730478
C                     5.904072134949    -2.103960249286    -0.480250327163
C                     1.131393767169    -1.951733232828     2.764565986372
C                     0.163290407982    -0.505565164777     1.073806067802
C                     6.443966041402    -4.237059615218    -6.958480413036
C                     7.525411676549    -4.763516077135    -4.845286645853
C                    -3.628601889778    -1.277357304575     0.444516424197
C                    -4.846632041869    -1.296787786858     2.546310407194
C                     6.941321868439    -5.418023120953    -7.512885924970
C                     8.030526410976    -5.940607894850    -5.404112427946
C                    -4.618651524377    -0.473456977679    -0.126367544367
C                    -5.832931016567    -0.486242232470     1.981126375703
C                     3.499281007399    -1.798916935213    -0.203591687079
C                     2.323646046295    -1.564401925852     0.668377445273
C                     5.725203517192    -2.233381193784    -1.858142025289
C                     0.103766978378    -1.116795535379     2.325365745227
C                     6.741019933200    -3.917649589676    -5.632369080690
C                    -3.752356732795    -1.685850609293     1.772300988424
C                     7.735653893475    -6.259570998488    -6.730901429919
C                    -5.711528249833    -0.081726361254     0.648939178794
O                     6.879144752709    -2.498003338371    -2.608792101451
O                    -1.000035653072    -0.807988305517     3.133134447493
O                     6.160828229635    -2.743494663145    -5.138183517280
O                    -2.759723803224    -2.542581205430     2.262140107188
S                     7.059635573789    -1.763583397140    -4.108057577983
S                    -1.954310077131    -2.083222958589     3.667134801516
Cl                    8.370538988113    -7.742190062835    -7.426830714213
Cl                   -6.954971221989     0.936021514531    -0.060273734096
H                     2.360965528229    -1.906294473823    -2.035087470185
H                     4.942612680309    -1.758372631481     1.404664334286
H                     3.016897662151    -2.842703361948     2.266461812800
H                     1.332435899615    -0.222414398752    -0.703934428423
H                     4.319346369846    -2.288238095323    -3.495081409429
H                     6.906970366850    -2.157177733367    -0.067176930186
H                     1.062624410462    -2.433853222453     3.735206549198
H                    -0.646985128442     0.148470879574     0.765639454579
H                     5.830579929846    -3.560048850132    -7.545152219635
H                     7.734595216256    -4.516109728828    -3.810361746603
H                    -2.764604499890    -1.597405745379    -0.129713330783
H                    -4.924672652099    -1.617261982479     3.580586857982
H                     6.721205781564    -5.676720354068    -8.543614427772
H                     8.641713717136    -6.609482803744    -4.806634436405
H                    -4.538410817558    -0.150152408954    -1.159302589135
H                    -6.691722498643    -0.176153621160     2.567803664578
