48
0 1 C24Cl2H16O4S2
C                     4.338729855901    -2.835193919279    -1.543163684258
C                     5.808833471750    -2.033328495720     0.195677138088
C                     3.223900668952    -1.592844608248     1.763623154224
C                     2.365471604472    -0.855182054282    -0.369946533829
C                     5.431886362641    -3.350664694052    -2.237450227861
C                     6.911579225183    -2.539462647709    -0.492977541798
C                     2.143315819915    -0.996843052876     2.413834908958
C                     1.279033102966    -0.256681194944     0.269072397926
C                     6.463092606629    -0.240739874351    -3.218175410750
C                     5.593272939188    -1.372529423739    -5.182361167615
C                    -2.457301551501    -0.814784099800    -0.361169669406
C                    -3.676945212533     0.131544866026     1.514309201449
C                     5.239267286735     0.410968023111    -3.056607765636
C                     4.374115883061    -0.709537563109    -5.031412129997
C                    -3.304499882747    -0.151939472145    -1.252590085998
C                    -4.519807502757     0.801781739475     0.625476974720
C                     4.509158404071    -2.149702142164    -0.328146175071
C                     3.352475723679    -1.534511118270     0.364328926147
C                     6.713379123616    -3.171442501250    -1.719774858493
C                     1.178673501940    -0.330472792637     1.657476455347
C                     6.623732530007    -1.145803564247    -4.268368559516
C                    -2.651733741992    -0.671588455545     1.012733567165
C                     4.202837687962     0.168256677895    -3.959759501228
C                    -4.327472499762     0.654712152905    -0.750780544803
O                     7.803947599246    -3.609554526504    -2.492046977897
O                     0.102575176047     0.335794024039     2.260900054480
O                     7.788852835187    -1.895434312807    -4.489571613423
O                    -1.802013373327    -1.413654039076     1.841826163649
S                     8.721059998050    -2.368689615759    -3.170503936674
S                    -1.014488096541    -0.607093914057     3.091180442131
Cl                    2.655296692151     0.976260303092    -3.742199700121
Cl                   -5.389251745426     1.499615834180    -1.866025866127
H                     3.341114082587    -2.961328350501    -1.953366903421
H                     5.964784916793    -1.501612012329     1.130272001443
H                     3.965088014108    -2.130063343980     2.349033635191
H                     2.458693049436    -0.767296747643    -1.447817936759
H                     5.308392996668    -3.853696301222    -3.191038743003
H                     7.918614934942    -2.412429546581    -0.106251650594
H                     2.039827130540    -1.056117467560     3.493387735432
H                     0.520664088169     0.282431386649    -0.290566232113
H                     7.262655580144    -0.076714560934    -2.504761037186
H                     5.748138131587    -2.081225944340    -5.990057213850
H                    -1.650046526845    -1.446538984234    -0.718604861152
H                    -3.811112971863     0.240347537075     2.585929751496
H                     5.091741935710     1.095201713158    -2.227440946756
H                     3.562866062599    -0.885326459460    -5.730620841883
H                    -3.166145733711    -0.255274716003    -2.324073023511
H                    -5.322943930599     1.429252511046     0.998497192043
