48
0 1 C24Cl2H16O4S2
C                     5.807740514431    -1.248909335700    -0.798157145462
C                     5.623850888671    -3.396331962360     0.281644224965
C                     3.581188352551    -2.048459757131     2.095772867108
C                     2.982734383605    -0.827096286041     0.101654534703
C                     6.881642373891    -1.708345932519    -1.555578980678
C                     6.691988209104    -3.873550347528    -0.479194216453
C                     2.376266200433    -1.678172475512     2.693705083199
C                     1.773276373151    -0.454691560023     0.685331521088
C                     4.573629222545    -3.881780481932    -3.171230063059
C                     5.244101495183    -2.202225996633    -4.791308093815
C                    -1.261622495388    -1.566169324818    -0.908123831745
C                    -2.974057459590    -0.834052013552     0.652403871329
C                     3.385992268298    -3.186901905450    -2.934934160714
C                     4.055113318679    -1.505952942949    -4.562097615024
C                    -1.886363352857    -0.856671936844    -1.935548956394
C                    -3.595479994940    -0.116270329885    -0.372309643457
C                     5.136280389651    -2.090466981845     0.107578694744
C                     3.901518479676    -1.639240871081     0.788359979751
C                     7.288219729017    -3.036491887738    -1.420846837977
C                     1.477284640558    -0.888183196173     1.976196994734
C                     5.498173031546    -3.379413108581    -4.086270272698
C                    -1.812460442738    -1.554537581094     0.374044090558
C                     3.139543810118    -2.003207840016    -3.632026507723
C                    -3.048551137856    -0.134229339682    -1.657785293750
O                     8.265173936893    -3.620918300181    -2.243135025174
O                     0.250681907615    -0.476769902190     2.516496631938
O                     6.679678150156    -4.109715543102    -4.288374305053
O                    -1.151868310797    -2.339601892803     1.327928267591
S                     8.121739273876    -3.325144382220    -3.895693402776
S                    -0.865001323726    -1.693996562187     2.853658737820
Cl                    1.646994698370    -1.116987060487    -3.335291090646
Cl                   -3.833293069516     0.770452030263    -2.943217286924
H                     5.482124811864    -0.219720844416    -0.916694147720
H                     5.119461582115    -4.073257577542     0.965422325184
H                     4.289915337883    -2.647793768945     2.660638318043
H                     3.188251159167    -0.524016071250    -0.919260350269
H                     7.364052500797    -1.059962294544    -2.279418658593
H                     7.030638408929    -4.901874925265    -0.396193326596
H                     2.129732481221    -2.002134404044     3.700567397461
H                     1.047241160155     0.144960254457     0.145466523586
H                     4.800612579668    -4.793217725032    -2.629383656743
H                     5.971235772203    -1.827333407461    -5.505086197334
H                    -0.348871088312    -2.123555236888    -1.091430505307
H                    -3.383765300091    -0.822311947253     1.657399645275
H                     2.671153783608    -3.553353821773    -2.205625214072
H                     3.841324794217    -0.589230542458    -5.102273266008
H                    -1.469773779694    -0.862129071537    -2.937657296057
H                    -4.500265099494     0.449393877007    -0.174029937762
