48
0 1 C24Cl2H16O4S2
C                     4.720246865317    -1.084896690785    -1.391809392148
C                     4.951102439637    -3.014549623491     0.030607731576
C                     2.995254536489    -1.640959564576     1.864668664168
C                     1.952364927540    -0.849929742920    -0.162062912649
C                     5.827670952759    -1.494522313023    -2.131521512952
C                     6.059163693483    -3.441212539952    -0.703237099862
C                     1.838166199432    -1.343811399858     2.582390783647
C                     0.789457969545    -0.545931575005     0.545563680425
C                     8.350417426852    -6.568013408288    -0.294978178314
C                     6.588167175275    -6.902454627831    -1.933131346806
C                     0.644576594243    -4.615942142350     3.353265647669
C                     0.146162052945    -3.948728611768     1.073686076869
C                     7.699269806346    -7.435759510705     0.584177990201
C                     5.939179264551    -7.777797582408    -1.059052067407
C                     1.733736823481    -5.363487128350     2.901726750839
C                     1.245875769130    -4.680721979148     0.622855399067
C                     4.259650989399    -1.836528877516    -0.296272852694
C                     3.064976465093    -1.426482204847     0.477177797276
C                     6.491265027639    -2.674886075767    -1.785010099907
C                     0.732717488183    -0.826275267598     1.910098157280
C                     7.791077475014    -6.309295791268    -1.548237223683
C                    -0.133574525218    -3.902368047229     2.440024058451
C                     6.502138502754    -8.040302457225     0.192117087820
C                     2.034574729218    -5.379097099341     1.538463945031
O                     7.556236508367    -3.018961760196    -2.627728480389
O                    -0.455543238993    -0.647383302543     2.640455843193
O                     8.441821888944    -5.503394999887    -2.485049191381
O                    -1.177207628148    -3.153036855304     3.006667057970
S                     8.848489574620    -3.921911207215    -2.062323681457
S                    -1.680660841385    -1.738161993820     2.248299419034
Cl                    5.701260100529    -9.153133418108     1.286785448559
Cl                    3.428160479303    -6.287308388204     0.970367528552
H                     4.227766501384    -0.152383758747    -1.653145060501
H                     4.598281667876    -3.639246183536     0.844364486739
H                     3.851224969564    -2.055272204621     2.388768964554
H                     1.977204352348    -0.680952532044    -1.234907015658
H                     6.193265046365    -0.910495879176    -2.970762971613
H                     6.558628032407    -4.364220359181    -0.434202220600
H                     1.766976634877    -1.544960717148     3.646514215562
H                    -0.082347975140    -0.141191083938     0.039643003815
H                     9.287061200865    -6.099120589343    -0.008985688334
H                     6.169993340794    -6.672966563843    -2.908147554275
H                     0.402553851456    -4.563245950738     4.410275038125
H                    -0.454710245270    -3.385720228877     0.369009292196
H                     8.124257808142    -7.651166862339     1.559271388750
H                     5.002490616311    -8.245542721819    -1.343986213550
H                     2.350115199325    -5.915861467646     3.603840179936
H                     1.492514371265    -4.697839041543    -0.433707884417
