14
0 1 C3H8O3
C                     0.266541041696    -1.905797068412     0.071553585558
C                    -1.990013092024     1.354531402999    -0.657856989567
C                    -0.425027176785     0.258386235668     0.746778943778
O                     0.015708001070     1.378594450753     1.446481573798
O                     0.616190364473    -0.664880488804     0.689777869100
O                    -0.807630079004     0.558980577010    -0.578543993900
H                     1.125696597693    -2.565549226783     0.204498956115
H                     0.057276553751    -1.773776763121    -0.993919010113
H                    -0.609586836146    -2.352984101822     0.561737648487
H                    -2.208725996731     1.481904553403    -1.719591657343
H                    -1.842577939254     2.334914271734    -0.191519699667
H                    -2.839029887836     0.851341540092    -0.173457701401
H                    -1.290092472744    -0.131659872110     1.307693562950
H                     0.858024296831     1.646814989789     1.038008584194
