14
0 1 C5ClH4NO2S
C                     0.674444297949     0.800706176210     1.347390198875
C                     0.907625161601    -0.054623386220     3.594332675246
C                    -0.509523711944     0.064527673274     1.241933880462
C                     1.385384138332     0.734419539056     2.548089839650
C                    -0.273455662722    -0.747676550039     3.345380065838
N                    -0.990998025995    -0.704248394554     2.228613439410
O                    -0.147952471119    -1.473410052647     5.897086318421
O                    -0.361163493908    -3.205167102472     3.965246772563
S                    -0.966776701337    -1.786919725832     4.690098470144
Cl                    2.865000735854     1.640171434498     2.738762051430
H                     1.023847140564     1.411058080892     0.521381551923
H                     1.405618176209    -0.139419012338     4.555094097519
H                    -1.094378297542     0.100403676196     0.325270631400
H                    -0.880785023595    -3.954433777111     4.313156181838
