48
0 1 C24Cl2H16O4S2
C                     4.526495339597    -3.144072540438    -1.169460886542
C                     5.952711373599    -1.780482454401     0.221667862002
C                     3.361945127610    -1.132949489959     1.690629963231
C                     2.332448882735    -1.216352993714    -0.490970885940
C                     5.639831759969    -3.836574089932    -1.641929710449
C                     7.075933983164    -2.460851986620    -0.249243762710
C                     2.174117320310    -0.651633881445     2.240890133735
C                     1.139248349799    -0.738779964563     0.047443642119
C                     5.869137236653    -7.365317710590    -0.913612283146
C                     8.076401571843    -7.965781087115    -1.733156527752
C                    -0.836250612568    -3.784640887191    -0.226136371955
C                     0.696017222962    -3.771224921957     1.655658070157
C                     5.294924537055    -8.345540683140    -1.725471377081
C                     7.502917295259    -8.940362654883    -2.553200982407
C                     0.018278590498    -4.640202483244    -0.923382307358
C                     1.560051946303    -4.613902296497     0.953042388385
C                     4.660397716556    -2.114656809876    -0.222301482919
C                     3.451191541536    -1.457692431136     0.324816089343
C                     6.906503341503    -3.491669872745    -1.174406486793
C                     1.059564686663    -0.496953287224     1.417444519560
C                     7.253078742656    -7.187400235952    -0.919351834425
C                    -0.489314492478    -3.346706199803     1.053913269849
C                     6.117830607437    -9.123695570342    -2.542089705637
C                     1.216388755510    -5.041590001669    -0.329660209280
O                     7.989596368808    -4.214527979852    -1.693694058034
O                    -0.195773083208    -0.158972179065     1.951234673811
O                     7.748909417470    -6.222706979378    -0.032541757862
O                    -1.414251416645    -2.472498446762     1.646076290154
S                     8.887773875662    -5.119549018065    -0.592261981735
S                    -0.914068878410    -1.399932622172     2.841139849670
Cl                    5.400508133171   -10.349726082800    -3.575807922094
Cl                    2.309874209387    -6.098977573910    -1.217545737980
H                     3.539324603654    -3.445010995137    -1.503224759255
H                     6.085066129471    -0.966015982638     0.928632639597
H                     4.212007524673    -1.313803051433     2.342425931656
H                     2.387831892257    -1.423648064001    -1.555377073113
H                     5.537459793262    -4.654694757881    -2.347839171100
H                     8.071474191163    -2.203909536886     0.100443666118
H                     2.091818780905    -0.451663332851     3.305361769546
H                     0.257716090940    -0.596873739959    -0.569664500849
H                     5.252974839195    -6.735301427299    -0.280473171673
H                     9.150161204344    -7.807228900127    -1.737138623304
H                    -1.764968973582    -3.439933672095    -0.670253611323
H                     0.968394634200    -3.422237827417     2.644657706042
H                     4.220332551135    -8.497217635762    -1.726166731811
H                     8.127947517410    -9.555467338224    -3.192654987790
H                    -0.240649295088    -4.981542453788    -1.920549703530
H                     2.497331505568    -4.927009599205     1.401253501408
