48
0 1 C24Cl2H16O4S2
C                     5.072520748306    -1.926270088010    -0.934238346084
C                     4.582126353311    -3.892293079357     0.378352053437
C                     2.633102375507    -2.048942551959     1.825154403877
C                     2.263887720218    -1.057717826447    -0.344551372407
C                     6.258276863868    -2.510136048868    -1.376257270809
C                     5.762503980497    -4.491005900627    -0.062724882936
C                     1.586542726806    -1.294969078870     2.355847273330
C                     1.218256946859    -0.296908071726     0.174596887642
C                     9.366782525543    -0.910664866626    -0.473304331221
C                    11.048343693159    -2.469996740331    -1.276313756532
C                     2.819504238324     2.970957523615     0.065422792401
C                     3.519917177622     1.593874556436     1.936840852594
C                     9.942281485603     0.109851955372    -1.232901328194
C                    11.619782440527    -1.452785508448    -2.044378366767
C                     4.020818116254     2.699541706746    -0.591496172351
C                     4.715309488480     1.307854813830     1.273855278588
C                     4.221021629823    -2.599188826270    -0.041569224737
C                     3.013206402394    -1.917135473333     0.477191137833
C                     6.595916964941    -3.787516441445    -0.933206461107
C                     0.913830256531    -0.394342545177     1.530902494825
C                     9.926606849157    -2.188582183568    -0.496243512415
C                     2.570636694152     2.409718883945     1.319915000591
C                    11.063750142595    -0.171310003941    -2.015737369920
C                     4.957201265199     1.861082948805     0.016165670564
O                     7.793956209624    -4.328648051060    -1.420183874184
O                    -0.044139374948     0.491671304896     2.052763978727
O                     9.320813695018    -3.135973139263     0.339455655165
O                     1.321394315483     2.735021318895     1.871241203877
S                     8.987028686967    -4.663660083476    -0.278483856952
S                     0.611657289609     1.718645499074     3.007910052904
Cl                   11.784760468719     1.104888656548    -2.984098359033
Cl                    6.462201837338     1.494333365009    -0.822036695727
H                     4.835529681734    -0.915191760701    -1.247323238138
H                     3.923771169859    -4.446011534060     1.042154920477
H                     3.199027181008    -2.704246658368     2.481250249352
H                     2.513683631722    -0.966405261269    -1.397294186934
H                     6.935130680286    -1.980239670494    -2.038971652078
H                     6.040795518575    -5.487158197322     0.268404475742
H                     1.329189254549    -1.359423979693     3.409162303050
H                     0.668036147140     0.404330050639    -0.444739715813
H                     8.485633195189    -0.725181909452     0.132177677302
H                    11.465120060586    -3.472021612873    -1.294747782252
H                     2.064263444024     3.603133394978    -0.391245493217
H                     3.320769298503     1.151059966149     2.905528772679
H                     9.519309061593     1.109189745415    -1.219582996156
H                    12.492909306781    -1.653392662518    -2.657017819862
H                     4.220664080658     3.127120507247    -1.568806823413
H                     5.447730097665     0.651951514774     1.732954191553
