48
0 1 C24Cl2H16O4S2
C                     5.697879748258    -3.399456383365    -0.923647075884
C                     7.186510810771    -2.521854106687     0.761450969331
C                     4.657625944536    -1.308369301081     1.957086961003
C                     4.042892886475    -0.931166541169    -0.344415066941
C                     6.712910071520    -4.229975117724    -1.395641047912
C                     8.211502746855    -3.345630176155     0.295605729568
C                     3.667905876213    -0.419824571038     2.381271634751
C                     3.057502741886    -0.032519585337     0.061670777807
C                     7.436595012727    -2.909456516440    -4.622591259294
C                     8.396322084056    -1.603705642407    -2.815212150761
C                     0.117076330278     1.037812449952     6.131094407764
C                    -0.624324802471     0.743758574888     3.834101392997
C                     6.371039547904    -2.012023239124    -4.712395521252
C                     7.323178292117    -0.714423075287    -2.892527057949
C                    -1.176730077466     0.777998610589     6.587155409615
C                    -1.920880132363     0.493206511485     4.291178393925
C                     5.921639352522    -2.516345673555     0.146722451611
C                     4.862416556671    -1.582310838443     0.594403127981
C                     7.971144647403    -4.174907058603    -0.799008422257
C                     2.878038932061     0.217977872270     1.422797041211
C                     8.433848093273    -2.708908164541    -3.666622330430
C                     0.383149865076     1.020807091574     4.760803218414
C                     6.316358894127    -0.927266288164    -3.835643648227
C                    -2.187831069435     0.511065104615     5.661364536307
O                     9.001975667706    -4.948673579741    -1.361888368547
O                     1.832343895421     1.090426338632     1.755691936151
O                     9.432654383016    -3.693778112058    -3.635165576353
O                     1.715387735995     1.235985589941     4.389719461591
S                    10.180860025597    -4.057358241868    -2.171985678086
S                     2.039405614433     2.167152734372     3.026428387137
Cl                    4.955229095820     0.184322667347    -3.917277890312
Cl                   -3.818387809107     0.189321280571     6.230015170663
H                     4.720859790113    -3.434183018678    -1.396467897887
H                     7.385181805971    -1.842384964200     1.585643686475
H                     5.255163891854    -1.824154343617     2.703813473903
H                     4.201286780684    -1.093644868512    -1.405871662676
H                     6.553560388016    -4.890656998120    -2.241705982116
H                     9.198980696628    -3.318617886219     0.747277508088
H                     3.502110449151    -0.240950206417     3.438071312279
H                     2.437939640001     0.487549083218    -0.662767590037
H                     7.492851529779    -3.777305210442    -5.272408978093
H                     9.167239403965    -1.458115148476    -2.067255713604
H                     0.921145602291     1.255556589940     6.827400619693
H                    -0.403572237123     0.714294262971     2.772796686996
H                     5.585288888062    -2.163937363680    -5.445484407169
H                     7.267216955406     0.131962111674    -2.215826993970
H                    -1.398087455324     0.791115924080     7.649516469747
H                    -2.715573802398     0.275492873272     3.584785879149
