48
0 1 C24Cl2H16O4S2
C                     3.711241478604    -2.297397787708    -2.660805882007
C                     3.344190501927    -4.600209037113    -2.041752393652
C                     2.158595462616    -3.483044945682     0.501480165424
C                     1.341060863720    -1.689378189248    -0.889671665831
C                     4.584418537316    -2.699351314077    -3.670809757324
C                     4.220020135493    -5.014205398523    -3.043777721286
C                     1.336730273223    -3.059365313373     1.545067642695
C                     0.519884700097    -1.252351030193     0.148246651314
C                     7.011974445127    -5.866636260487    -1.102546809261
C                     7.125053746472    -3.472908408042    -1.482621456229
C                     2.315040534744     1.556160731644     1.211736187139
C                     3.315625378509    -0.349771197580     2.331054193862
C                     6.484997077040    -5.644355039763     0.171623414436
C                     6.587322481444    -3.249342572598    -0.215916404236
C                     3.341991945245     1.545244245005     0.265238366157
C                     4.335184834265    -0.369786108466     1.380355510176
C                     3.084677716771    -3.237021496180    -1.821792281760
C                     2.184623377104    -2.801381384679    -0.728988249377
C                     4.846137393471    -4.058420660371    -3.840890810694
C                     0.535765435192    -1.932353334595     1.364064313486
C                     7.309894293097    -4.781604793558    -1.928505475425
C                     2.297051462390     0.597426179800     2.225918853178
C                     6.260709084039    -4.334236802709     0.597458501944
C                     4.335554062372     0.568571892787     0.348408809684
O                     5.772708273987    -4.518720847938    -4.793660953280
O                    -0.260049889441    -1.416175266853     2.402593989063
O                     7.785941852519    -5.105570436913    -3.208583639881
O                     1.199690732672     0.655800913849     3.099031320521
S                     7.374669425509    -4.094889929156    -4.492175646851
S                     0.593395939704    -0.791528560594     3.712890537670
Cl                    5.546267238836    -4.044201758680     2.181326036862
Cl                    5.604369795879     0.512010188654    -0.872226238392
H                     3.551783879992    -1.236583718942    -2.494656165511
H                     2.854200070231    -5.348487965446    -1.425935040903
H                     2.821272129425    -4.327386799512     0.663441010372
H                     1.321566642042    -1.159915201717    -1.837599191342
H                     5.091802785797    -1.966640588778    -4.291422857921
H                     4.443789630080    -6.064650636728    -3.200396786881
H                     1.348218742217    -3.569415979983     2.503782408604
H                    -0.114344982106    -0.378544901488     0.037519521504
H                     7.169366892632    -6.874723561782    -1.473332713398
H                     7.352264094160    -2.631187097969    -2.126423541415
H                     1.511985176851     2.284469882615     1.155676190628
H                     3.298069247198    -1.096433336073     3.116479335636
H                     6.235532885563    -6.481131511601     0.816239633469
H                     6.421881772450    -2.232261449515     0.117723286461
H                     3.357154983748     2.276290824395    -0.536810269136
H                     5.111905439557    -1.121423586969     1.451292466698
