20
-2 1 C6FH5N2O4S2
C                     1.553829039268    -0.662685705156    -0.553325037906
C                     0.355035140257    -0.105328807873    -0.100192772619
C                     2.401527924530    -1.290873538307     0.360374210223
C                     0.024443573795    -0.200208879426     1.253126571146
C                     2.094561834478    -1.381836153304     1.726628200798
C                     0.872143046443    -0.836284813291     2.175414106107
N                     4.396725699068    -2.970887090128     1.732493902632
N                    -0.922893823875     0.339849722850     4.028595020961
O                     2.748606716088    -3.112738269719     3.646592703125
O                     4.145421870644    -0.992494904279     3.348783802450
O                     1.237156590315    -0.465152710839     4.822485855082
O                    -0.426675876011    -2.241167105087     4.001167649713
F                    -2.183856456448    -0.139658639654     3.313100552326
S                     3.459447859629    -2.179000604652     2.748766739276
S                     0.167005501881    -0.890498748644     3.900375091769
H                     1.827809741035    -0.614948311475    -1.607791001600
H                    -0.325930351336     0.392503045816    -0.790643898008
H                     3.322965717309    -1.764729367433     0.031997028133
H                    -0.903443904913     0.225665065564     1.617711280390
H                     5.126911185425    -2.297659539923     1.481850090484
