21
-1 1 C6FH6N2O4S2
C                    -1.228641435773     0.817862487680     3.786740212562
C                    -0.747690054641     1.460028812022     4.929268741386
C                    -0.566951419873    -0.305785299899     3.287222024565
C                     0.392652644213     0.964578192281     5.562439608784
C                     0.592937857452    -0.806213021811     3.886629184544
C                     1.061565812620    -0.150435148337     5.042016349164
N                     0.268754256587    -2.845985001502     2.025308497586
N                     2.172169376663    -2.236779532789     6.621851733657
O                     1.499769168568    -3.249934885941     4.180151469349
O                     2.582528750730    -1.761198861128     2.425517003894
O                     3.691570755159    -0.870554879798     5.167831210268
O                     2.587032170503     0.251132459676     7.165272685596
F                     0.930562792306    -2.134167885848     7.338815404608
S                     1.340387374592    -2.302869093767     3.029648769137
S                     2.521869664497    -0.648683649702     6.009689265024
H                    -2.127363148470     1.179238985999     3.291150149334
H                    -1.258751544975     2.328539432630     5.337626174563
H                    -0.950281824338    -0.849510512859     2.427841229579
H                     0.774495155823     1.427771994921     6.465432940469
H                     0.513605520358    -2.454116248658     1.113149589066
H                     1.902675986516    -2.791943085785     5.770088180031
