21
-1 1 C6FH6N2O4S2
C                     1.859655673199    -0.839901242100    -0.266027290001
C                     0.812751535426    -0.314045396317     0.497294654151
C                     2.951209333918    -1.443582534659     0.358695638944
C                     0.870127452782    -0.403407721220     1.887180185508
C                     3.030247215645    -1.555108663848     1.753538264280
C                     1.962928183099    -1.025892262314     2.505080205129
N                     4.123345391181    -3.881549871796     2.824339997261
N                     3.156184602441    -0.098518133126     4.923080945259
O                     4.987971660558    -1.511461275537     3.504099441074
O                     5.432156100140    -2.457885138713     1.221969241411
O                     0.606479523440    -0.437862941541     4.702130541719
O                     2.201995418247    -2.413274330372     4.822409939320
F                     2.998277239051     1.196487157340     4.322412247976
S                     4.543571745308    -2.445162030493     2.404260791441
S                     1.861315331685    -1.083524359650     4.312226745569
H                     1.832378847576    -0.770921854958    -1.351596385101
H                    -0.037047633018     0.167932038259     0.020389324930
H                     3.782607407340    -1.837861948995    -0.216864112995
H                     0.079659389777     0.004251594923     2.507647910541
H                     3.626266577830    -3.808873065274     3.715566158191
H                     4.012308909664    -0.481244719935     4.447441206838
