21
-1 1 C6FH6N2O4S2
C                     1.934658494026    -1.037081709142    -0.067547571196
C                     0.806556436653    -0.586001931752     0.620198649006
C                     3.026055137283    -1.545934064542     0.639474230536
C                     0.787098871081    -0.646739600800     2.013996985451
C                     3.021107997127    -1.643029726992     2.034306489290
C                     1.877927754817    -1.178011755254     2.713577460203
N                     5.664980584108    -2.413281463680     1.652374176307
N                     2.901030739929    -0.110297871841     5.141355458398
O                     4.115828074354    -3.715855284743     3.263023121145
O                     4.925380468953    -1.369578742196     3.817214946029
O                     0.377923340520    -0.521095621600     4.790731518202
O                     2.000265635892    -2.450761154015     5.125465393909
F                     2.739109958987     1.148193900042     4.465973320846
S                     4.576639277771    -2.391576403118     2.778010352547
S                     1.667104585982    -1.165605745894     4.522570426934
H                     1.974847820393    -0.979705987581    -1.153359315214
H                    -0.046181882562    -0.175766607407     0.084655801624
H                     3.932614472481    -1.858335095594     0.127929320944
H                    -0.064953184669    -0.280677841543     2.575912659736
H                     5.643555876340    -3.356470133186     1.258092745807
H                     3.794284263421    -0.481717894322     4.728457388414
