21
-1 1 C6FH6N2O4S2
C                     1.811596878447    -0.568437942159    -0.115995729247
C                     0.726360768107    -0.017821545433     0.568706123878
C                     2.804695457505    -1.252209348287     0.584920055403
C                     0.650801543902    -0.154004930174     1.955136942982
C                     2.754859246463    -1.389489267586     1.980061300731
C                     1.660354618445    -0.820545410846     2.659159627580
N                     5.334299152772    -1.091044343529     3.035549370208
N                     1.227938339180    -2.456190956706     4.786605264193
O                     4.582514938720    -3.202018524528     1.628848047626
O                     3.842595242864    -2.797967249735     4.012858915290
O                     2.564361552035    -0.200949050174     5.115591889093
O                     0.075002450403    -0.226759859128     4.722542039174
F                     5.768559159523    -0.626604847151     1.684710317072
S                     4.239111198221    -2.237704751516     2.695757354133
S                     1.405320074811    -0.809362234768     4.459341089947
H                     1.885272141823    -0.474142251583    -1.197156407758
H                    -0.060855918988     0.507971693394     0.033849672256
H                     3.639938146240    -1.703609410184     0.061710524308
H                    -0.187946785100     0.250858705721     2.511103712899
H                     2.165484302128    -2.881074784676     4.718331233231
H                     0.847624054312    -2.532210771463     5.731117987997
