12
0 1 C4H4INO2
C                    -0.370665431654    -1.149762936930    -0.421440212564
C                    -0.531936779864     1.150190692037     0.169208731198
C                     0.241284768125    -0.369872094471    -1.599198507809
C                     0.137402000481     1.118300181984    -1.216728698950
N                    -0.873893442945    -0.183741387348     0.474920972891
O                    -0.408711156392    -2.352765223544    -0.297287714041
O                    -0.723378140136     2.129595535451     0.853508552521
I                    -1.083859646330    -0.825518142012     2.917360402510
H                     1.265879588462    -0.729248916779    -1.724832956527
H                    -0.300944513778    -0.623459793527    -2.513045062998
H                    -0.462561377664     1.706586688173    -1.914839653880
H                     1.101781910061     1.623501611514    -1.119099318949
