17
0 1 C7H7N3
C                     1.884020796473    -1.114360378274    -0.240834358942
C                     2.914703895870    -1.667513698175     0.529486361288
C                     0.768588627968    -0.557694978019     0.390511196336
C                     2.827810981713    -1.664051884364     1.922704163874
C                     0.684234870112    -0.555942549477     1.787263495223
C                     1.708929196932    -1.111576371677     2.564373696652
C                     1.639160176848    -1.067853194606     4.072378190853
N                     2.184396121951     2.234212144883     3.942658197730
N                     2.509615645416    -0.012367993269     4.672473000743
N                     2.293009702107     1.137294701622     4.256807540326
H                     1.951793373818    -1.118042213386    -1.325601348393
H                     3.784237871119    -2.101121314094     0.042369118425
H                    -0.034048468259    -0.125123522829    -0.200975969419
H                     3.632819453315    -2.087027446395     2.519604754285
H                    -0.186024040873    -0.121499008193     2.274848604825
H                     0.605577075209    -0.919458109084     4.407454528884
H                     2.003791924654    -1.996877695219     4.513206255184
