14
1 1 C4H4N5O
C                    -1.567291249298    -0.145708389322     0.303457862107
C                     0.584017390209    -0.315319760876     0.492270174745
C                     2.039734461027    -0.653663847559     0.624697634274
C                     0.178324327245     1.037529922239    -0.128486793260
N                     1.231855054888     1.428155373227    -2.446357611149
N                    -1.258290181824     0.963006864055    -0.280964232249
N                    -0.477974806948    -0.957084153960     0.794032071519
N                     0.811931167871     1.259534843666    -1.434394044451
N                     2.349859172807    -1.737155599309     1.349809708209
O                     2.810774634718     0.100622009422     0.025127577674
H                    -2.591479783248    -0.484427869027     0.431892044569
H                     0.496591028381     1.890145800432     0.486490781714
H                     3.324120223230    -2.010615045648     1.440210374051
H                     1.634328804790    -2.307306752688     1.788449746484
