14
1 1 C4H4N5O
C                    -1.688407180817    -0.084388598883     0.024094343295
C                     0.383269236871    -0.717257983440     0.014572265065
C                     1.745961854235    -1.332635902142    -0.108274615694
C                     0.260873395017     0.806042542081     0.227496457930
N                     1.518153060039     2.168117794851    -1.561057256001
N                    -1.153204684341     1.087016871031     0.111391802846
N                    -0.791680693750    -1.215036665402    -0.034705283012
N                     1.009290136970     1.567263949046    -0.780739774999
N                     1.814683357446    -2.670857290909    -0.086328980587
O                     2.674364301745    -0.530377252289    -0.239912553408
H                    -2.762095961781    -0.246124437681    -0.010637409162
H                     0.680731595267     1.127203678514     1.190331424060
H                     2.718761174324    -3.122129545926    -0.191754712558
H                     0.983727713215    -3.245592198454     0.006637289833
