14
1 1 C4H4N5O
C                     1.304472318391    -2.767402069299    -0.928530164431
C                     0.739372775334    -0.677292938250    -0.375265786109
C                     2.055960119120    -0.794209287675    -0.867466675682
C                    -0.232670874407     0.357275041555     0.148039700691
N                     3.753832232320     0.985560571402    -1.176346201734
N                     2.390434274652    -2.084351005649    -1.203839815385
N                     2.968531209061     0.198455117357    -1.027472094418
N                     0.303611207080    -1.954179365068    -0.432853898235
N                     0.175941786231     1.644579993965     0.213125539502
O                    -1.334725204897    -0.055015681161     0.479505446738
H                     1.183060788482    -3.835067374244    -1.063945088611
H                    -0.642899451742    -2.205895406664    -0.134591265143
H                    -0.488047758654     2.328014599964     0.566181551700
H                     1.086781836973     1.981483295148    -0.066183796856
