36
0 1 C18H16NP
C                     0.929295894438    -2.083464448610     0.131714197442
C                    -0.136784662348    -4.121538494428     7.140576307972
C                     6.119257375033    -0.483711500670     5.232217894857
C                     0.555611602049    -0.796422645443     0.532063311426
C                     1.482027068511    -2.971937972567     1.061820039935
C                     1.174229148926    -4.226609894630     6.662271352654
C                    -0.903085731318    -2.992202305839     6.832817251162
C                     5.232040213025    -0.587679661639     6.309962771516
C                     5.626652855542    -0.488086912476     3.923422876002
C                     0.737927237822    -0.391646969383     1.857905271405
C                     1.662061590665    -2.572193147207     2.387844941767
C                     1.716711927880    -3.206610708487     5.875966924736
C                    -0.361508004148    -1.972007509341     6.046020058717
C                     3.859756211093    -0.699785086413     6.077336575541
C                     4.252476764617    -0.597131100004     3.690056593947
C                     1.295894541018    -1.278922695433     2.787970023288
C                     0.950428819184    -2.073334282263     5.560717756100
C                     3.358347526927    -0.711205524385     4.764824271993
N                     0.777980295766     0.677891464135     4.619517205375
P                     1.544163956189    -0.699056525813     4.493012244271
H                     0.787377498758    -2.396185441371    -0.899819612531
H                    -0.556799229171    -4.914434358974     7.754392471263
H                     7.187947876155    -0.399879553878     5.412509909351
H                     0.121156736373    -0.107098270630    -0.187548071239
H                     1.767578743291    -3.975080562629     0.755794535917
H                     1.775145993278    -5.099331749814     6.905686731107
H                    -1.920412879470    -2.906008709950     7.206228821492
H                     5.608985231885    -0.583668048582     7.329576542021
H                     6.311319460173    -0.406457575864     3.083016174414
H                     0.452345701572     0.599854838608     2.196276266750
H                     2.083768714922    -3.270414181580     3.105159758840
H                     2.741428750023    -3.289235205178     5.523801237320
H                    -0.943120352727    -1.086408883458     5.801621320838
H                     3.178500222377    -0.787130817509     6.920501623923
H                     3.877730725782    -0.597389872951     2.670523983351
H                     0.946577208148     1.186819386040     5.485317274475
