36
0 1 C18H16NP
C                     1.135577622117    -1.791345234844    -0.070481879996
C                     0.398026475830    -4.344749082627     6.889190314203
C                     6.182953620948     0.011650831146     4.996384075345
C                     2.127326772829    -2.418424473490     0.693179848843
C                     0.317557492546    -0.817370442834     0.511415155339
C                     1.210052514592    -3.349332109417     7.445213965379
C                    -0.009081167778    -4.244793931743     5.555043410037
C                     5.678074523842    -1.291555785317     5.069100411404
C                     5.315559521921     1.083532487812     4.759599361426
C                     2.297854986234    -2.072902923460     2.035597131340
C                     0.483084605595    -0.471892872722     1.856092971753
C                     1.615320145537    -2.262587611188     6.667604363541
C                     0.393786506931    -3.155306575737     4.776997411629
C                     4.309929073996    -1.522819339391     4.902693318988
C                     3.947334425613     0.852940872376     4.592562902679
C                     1.472236586307    -1.102897235701     2.622225587742
C                     1.215280473219    -2.158923774741     5.324693924926
C                     3.435915338487    -0.451195159189     4.660670263987
N                     0.736459570120     0.640811837063     4.589521493703
P                     1.629899988420    -0.645484836965     4.374654400249
H                     1.004958895586    -2.059186597242    -1.116039573983
H                     0.085015573334    -5.192783370989     7.492922280772
H                     7.247062410529     0.190662496087     5.128629571998
H                     2.769146454348    -3.171131683724     0.242641419740
H                    -0.449370312745    -0.325444836537    -0.081529337995
H                     1.528745891313    -3.420921731943     8.482045765291
H                    -0.640619295935    -5.014548903325     5.118758744819
H                     6.348156284866    -2.126068262419     5.260353628011
H                     5.704355850713     2.097358694790     4.706546520250
H                     3.075232575616    -2.558032132211     2.618856237065
H                    -0.135035509412     0.283917612596     2.331294614945
H                     2.251907576802    -1.497603277996     7.105985205526
H                     0.071355091187    -3.083933307314     3.742179422051
H                     3.925025282805    -2.536257484845     4.978000432587
H                     3.259998116662     1.675925811330     4.412166719651
H                     0.618019227372     0.925741945583     5.559989121415
