36
0 1 C18H16NP
C                     0.687228245673    -2.236889543439     0.187896735520
C                    -0.217925303806    -4.246717480320     7.225841213732
C                     5.935753238995    -0.505132361320     5.184235836093
C                     0.297785664504    -0.953978307075     0.586503443578
C                     1.271694780331    -3.108542116693     1.114491190881
C                     1.087255910960    -4.329403022895     6.727615869162
C                    -1.011399791881    -3.134970766499     6.922876592411
C                     5.070048104287    -0.617618492054     6.278438975979
C                     5.419888116072    -0.527997224867     3.884587962831
C                     0.495603641916    -0.536297496419     1.906110383655
C                     1.467430032661    -2.696236561140     2.434446493608
C                     1.597159513932    -3.304493871294     5.926014822538
C                    -0.502134450710    -2.110015153140     6.120864999524
C                     3.696075656629    -0.756627783644     6.071410457545
C                     4.044026876195    -0.663991846806     3.676894469730
C                     1.085290975433    -1.406893742000     2.832331324574
C                     0.803793570686    -2.188678758409     5.615504049524
C                     3.171465118284    -0.786789979760     4.768338199175
N                     0.563120896549     0.552450466729     4.659841842355
P                     1.352850074706    -0.810699153365     4.528838324615
H                     0.533055883829    -2.559320567592    -0.838887317397
H                    -0.612463300585    -5.043461743797     7.851457219181
H                     7.005773848204    -0.400361576108     5.344586908091
H                    -0.161315132332    -0.277563765952    -0.130037324822
H                     1.569812466492    -4.108632005137     0.810471337284
H                     1.709000170179    -5.188465909379     6.967298325735
H                    -2.024276369187    -3.066204939404     7.311706592749
H                     5.465001023626    -0.599305235157     7.291055753734
H                     6.087762080980    -0.439844297437     3.031423206160
H                     0.198173372826     0.452382886855     2.242554004472
H                     1.913830348894    -3.381814049087     3.148996312129
H                     2.617551174936    -3.369598289518     5.558003283389
H                    -1.104797103598    -1.237651720264     5.879908178392
H                     3.031864539954    -0.850373987189     6.927377588553
H                     3.651100843160    -0.678578796538     2.664330731407
H                     0.738322559658     1.071122324411     5.518512010556
