36
0 1 C18H16NP
C                     1.084580867243    -1.835920418976    -0.028881084547
C                     0.383579022502    -4.403752997797     6.929809702889
C                     6.132113671865    -0.003911741443     5.027878718509
C                     2.082118015406    -2.457760644482     0.731520706296
C                     0.261888542119    -0.867874766563     0.556327816945
C                     1.190305033993    -3.403291420571     7.484523016039
C                    -0.028033120401    -4.304909600606     5.596970945955
C                     5.636842406155    -1.310857963293     5.099740375164
C                     5.256797551864     1.062375919428     4.795037438457
C                     2.253546957218    -2.112835027368     2.073977592415
C                     0.428312467662    -0.522965633319     1.901046057206
C                     1.585850383094    -2.312691173141     6.707300248034
C                     0.365024037456    -3.211635261977     4.819185514406
C                     4.269982544717    -1.551683786607     4.936386460625
C                     3.889897229536     0.821972035563     4.631036371940
C                     1.423283376234    -1.148777471378     2.663905622187
C                     1.181132133345    -2.210196098648     5.365699009714
C                     3.387832524382    -0.485847963698     4.698280036664
N                     0.680512431233     0.587113886533     4.635414471966
P                     1.582518217700    -0.692570443076     4.416515767849
H                     0.953102307121    -2.103182554582    -1.074481604845
H                     0.078247888944    -5.254677361035     7.533416995307
H                     7.195258046563     0.182384889195     5.157769074944
H                     2.727613298330    -3.205812005447     0.278478644556
H                    -0.509540936662    -0.380047225005    -0.034159341468
H                     1.512528387841    -3.473955718535     8.520325560985
H                    -0.655479094729    -5.078464064561     5.161499933032
H                     6.313390368728    -2.140829300870     5.287981943722
H                     5.638244085459     2.079032086752     4.742646899602
H                     3.035360792618    -2.593814862359     2.654740426359
H                    -0.193395617003     0.228338008448     2.378710088961
H                     2.218419872342    -1.543901881175     7.144858288250
H                     0.039088415514    -3.141245395315     3.785400129485
H                     3.892494103196    -2.567949087768     5.011080178460
H                     3.196239205582     1.640274486468     4.453549060164
H                     0.563757237437     0.870805005991     5.606465268841
