20
0 1 C4H10NO3PS
C                    -0.517733049684    -1.270000852329     1.392600390367
C                    -0.915687282241    -2.717447788238     1.175788369577
C                     1.278491802305     1.046297489019    -1.941550048217
C                     0.788354349305     2.232423070818     2.820207440752
N                    -0.416799608890    -0.511290946865     0.229856175532
O                    -0.297380886272    -0.791615869542     2.495681562775
O                    -1.485385994396     1.929770701094     0.702371609367
O                     0.016886658638     1.418162665953    -1.346695325696
P                    -0.285844971249     1.209012104570     0.226693807229
S                     1.505847229217     1.699411870713     1.213001238179
H                    -0.363161418342    -3.171645789968     0.347445241485
H                    -1.984772650106    -2.771506002612     0.942010175982
H                    -0.729105673800    -3.276246338871     2.092727764475
H                     1.142730965566     1.134973174740    -3.019669619383
H                     1.548091012020     0.016783606668    -1.684268845693
H                     2.065524346315     1.729389066476    -1.611700404080
H                     1.620891164458     2.659502693165     3.382948964867
H                     0.376823509188     1.365869527456     3.335558298678
H                     0.019786496835     2.985535043409     2.650056742369
H                    -0.752830593193    -0.930231654375    -0.633043843700
