20
0 1 C4H10NO3PS
C                    -1.352329110326    -1.296465729607    -0.486181922144
C                    -1.507531198104    -2.805864923265    -0.516552741082
C                    -0.811988218466     2.431433400904    -1.058989862626
C                     2.391445495259     0.354361809883     1.300075141526
N                    -0.669507455581    -0.810247744037     0.629918337882
O                    -1.781374112709    -0.559609064908    -1.360667916562
O                    -1.818574995447     1.445094282823     1.626914402348
O                     0.015282600802     1.535878649768    -0.262423058728
P                    -0.584707267955     0.855619265786     1.058428892449
S                     1.016243372057     0.841180067622     2.422051877433
H                    -2.199973850175    -3.124926289818     0.270163286162
H                    -0.549979299116    -3.309150651915    -0.349152457127
H                    -1.911829476943    -3.099700322226    -1.484907157814
H                    -0.114566977237     2.999759448543    -1.674606599003
H                    -1.379767705423     3.098624997091    -0.408112985057
H                    -1.481252353074     1.831291663580    -1.675500744444
H                     3.288171140934     0.308736568829     1.921389592431
H                     2.520802848532     1.101640185821     0.517321265145
H                     2.207366286471    -0.624468934467     0.853609921707
H                    -0.489969005311    -1.467067900820     1.383631355240
