20
0 1 C4H10NO3PS
C                    -0.453779475474    -2.742279682853     1.419338942224
C                    -0.688077268173    -4.161832354461     0.941992173373
C                    -0.238399731014     1.715791413539    -1.139890834434
C                     1.017001847045     0.492422789453     3.357301872758
N                    -0.476871313710    -1.776815108161     0.423198028130
O                    -0.263455446423    -2.443793281887     2.590514087756
O                    -1.460389779673     0.530688175651     1.475426223112
O                    -0.130770330510     0.310823278615    -0.802773893827
P                    -0.334679386330    -0.104770462414     0.750078633567
S                     1.545586664995     0.257034722363     1.611398365603
H                    -0.050703617159    -4.407018391611     0.086461100262
H                    -1.731817010895    -4.281026605398     0.631978128424
H                    -0.480389760066    -4.848745660316     1.762059821866
H                    -0.117176021973     1.773799628868    -2.221425948156
H                     0.554257845034     2.283668348478    -0.645062479466
H                    -1.217255309651     2.098900526678    -0.843584093231
H                     1.908329054363     0.821985894715     3.895352617944
H                     0.653417002266    -0.453358213372     3.757159830915
H                     0.239635836061     1.254149682365     3.409255792788
H                    -0.606629232965    -2.052350347361    -0.545194388817
