20
0 1 C4H10NO3PS
C                    -0.423139485255    -2.005662100418     1.242387507042
C                    -1.006986046477    -3.295176240680     0.694164568256
C                     2.211729008608     0.242053371564     1.435008673198
C                    -0.400284623158     3.104437352571    -1.128318988278
N                    -0.428285950592    -0.944659004260     0.323123135027
O                     0.023919810067    -1.894852053830     2.370504508379
O                    -1.521676464786     1.398709963519     1.220783461117
O                     0.936906087156     0.871737104021     1.681889892500
P                    -0.310553980333     0.729186563829     0.696473458386
S                     0.263806814799     1.392310104917    -1.232914113115
H                    -0.590146691087    -3.539049738427    -0.288309005554
H                    -2.092029446353    -3.190674891336     0.585397277996
H                    -0.796268115114    -4.104058072500     1.393278922554
H                     2.903476004318     0.682711263087     2.153044330175
H                     2.553533882499     0.451678149813     0.416893246797
H                     2.129708662955    -0.831764279927     1.609671983163
H                    -0.369624164364     3.504046645064    -2.143636268466
H                     0.219760389829     3.716507802578    -0.472430844858
H                    -1.425820796835     3.081049571979    -0.760490285147
H                    -0.903676875180    -1.129523448528    -0.556159184043
