20
0 1 C4H10NO3PS
C                    -1.279227236917    -1.044553172763    -0.570651506307
C                    -1.588658059788    -2.524369312428    -0.693749285856
C                     2.471398546638     0.262967296322     1.411630952265
C                    -0.846644536712     2.896653094995    -1.113199686272
N                    -0.374485244431    -0.718341008103     0.435840124611
O                    -1.773900632923    -0.191848604470    -1.293351320635
O                    -1.234152218452     1.532813512486     1.667848656766
O                     1.171330321458     0.606030527160     1.936775176410
P                    -0.094250694638     0.896455199078     0.974787396535
S                     0.677370415086     1.973416517749    -0.658446365977
H                    -2.229534218340    -2.836429823238     0.138290573687
H                    -0.678237773577    -3.131319650125    -0.667289277008
H                    -2.118760023509    -2.697761554609    -1.630037458075
H                     3.073560830722    -0.040560612973     2.268327511724
H                     2.925275866978     1.134227722803     0.932306759305
H                     2.402589295261    -0.561770097634     0.694786356770
H                    -0.534497981688     3.617841547459    -1.871246770822
H                    -1.240805600564     3.412754273288    -0.238484970879
H                    -1.580709029609     2.201958666890    -1.518687153306
H                    -0.116328470586    -1.452850687205     1.089222756817
