20
0 1 C4H10NO3PS
C                     0.488853600294    -2.272144440486     0.196735550719
C                     0.185550506646    -3.740241755026    -0.041419880344
C                     0.761596127932     0.001253520268     2.864912876562
C                    -1.716136278327     1.188045188006    -1.933800650142
N                    -0.617191006828    -1.503489263192     0.555293111453
O                     1.603421691207    -1.785988654405     0.084255981782
O                    -2.090589952045     0.529683966642     1.095889056145
O                     0.527910804937     0.644460836728     1.591071425375
P                    -0.702809413548     0.208543462828     0.670214880843
S                    -0.068408870607     1.078605969691    -1.123239485026
H                    -0.375387814373    -3.854601040791    -0.975474908859
H                    -0.417947553013    -4.163765766901     0.767864263743
H                     1.124641968680    -4.287149101057    -0.123261464644
H                     1.485813749503     0.628091279477     3.384732572531
H                     1.181106431208    -0.993560942354     2.700636394474
H                    -0.162730459116    -0.055542757538     3.445673995973
H                    -1.567980629617     1.804452086502    -2.822837276861
H                    -2.436725739231     1.662631313434    -1.268047108900
H                    -2.074212970438     0.201978146387    -2.235632382431
H                    -1.521565311113    -1.961029495267     0.621617743532
