20
0 1 C4H10NO3PS
C                    -1.568517972033    -2.292371196885    -1.097062644195
C                    -1.519029393375    -3.805757492112    -1.169839629255
C                     0.768460683502     1.032353817687     2.057492960287
C                    -1.466127118991     1.604165322774    -2.181977200004
N                    -0.825941536699    -1.730954409707    -0.068210487363
O                    -2.194096030183    -1.595206855316    -1.884087335215
O                    -2.010176251905     0.591530859917     0.708343099017
O                     0.472846111382    -0.140919637196     1.260476186422
P                    -0.765195564860    -0.046941246567     0.219229778548
S                     0.070480202504     0.895195148763    -1.461217471040
H                    -1.790648911720    -4.255620934516    -0.209551312577
H                    -0.506848572974    -4.137654888010    -1.425225890523
H                    -2.211375131932    -4.144716514464    -1.939953007271
H                     1.589214383789     0.747638253484     2.715579565138
H                    -0.108274716237     1.319743192626     2.641837207384
H                     1.078160286061     1.858272462180     1.411282711326
H                    -1.140600529867     2.241040547066    -3.007198584728
H                    -1.988856522312     2.195149113999    -1.430500427328
H                    -2.102322752741     0.798068958080    -2.545299842767
H                    -0.288759578782    -2.328928504883     0.551868715763
