20
0 1 C4H10NO3PS
C                    -1.203905454527    -1.541523917543    -0.854209580031
C                    -1.060364141134    -3.051047753601    -0.787853393115
C                     1.156851069871     2.041941442210     2.003672076599
C                     1.622720672953     0.910224421850    -1.921746845258
N                    -0.339287551441    -0.845079198772    -0.005885699441
O                    -1.996386597601    -0.964883770953    -1.577873904494
O                    -1.655727180700     1.395809135761     0.882886497426
O                     0.897857709190     0.837777775664     1.242154520900
P                    -0.423232255312     0.833484285782     0.290231268231
S                     0.106193075968     1.841808198083    -1.469359137598
H                    -1.434580320121    -3.417491494137     0.174214419521
H                    -0.014156215358    -3.359672184487    -0.882942288579
H                    -1.648159427994    -3.496600814787    -1.590021924088
H                     2.035529587161     1.829214415482     2.612629250074
H                     0.299580564810     2.277721253897     2.637633259577
H                     1.363804275805     2.877770157664     1.328629189265
H                     2.042298261112     1.416479136283    -2.793704415089
H                     1.374814707274    -0.118354631916    -2.189302764176
H                     2.350962120992     0.924344674325    -1.109173589634
H                     0.283348043289    -1.372299670870     0.598564498189
