20
0 1 C4H10NO3PS
C                    -1.290956449792    -1.647150001298    -0.294002296161
C                    -2.406504481647    -0.872946400950    -0.954190925187
C                     2.419540471185     0.572065414896     1.199638285919
C                    -0.247342762373     3.318211187074    -0.935690805233
N                    -0.266809821385    -0.895049646197     0.317670329003
O                    -1.226536501123    -2.865251867483    -0.264818707462
O                    -1.418337368517     1.390343047389     1.228985236915
O                     1.067797673333     0.840118855644     1.628324675489
P                    -0.208388128150     0.770680364938     0.644396361777
S                     0.337540234750     1.596928633915    -1.220466420467
H                    -2.011374504906    -0.237024309484    -1.752004587013
H                    -2.898667111708    -0.219535431305    -0.228465656575
H                    -3.119895910087    -1.584735253250    -1.368362438961
H                     3.038646639131     0.663261354709     2.091874984817
H                     2.730450878828     1.298954116648     0.445880955261
H                     2.512244296167    -0.439105020998     0.789844813961
H                    -0.216713932502     3.813306892952    -1.908092035890
H                     0.406424830378     3.840985697460    -0.236388037389
H                    -1.267556492833     3.299988186642    -0.552833077728
H                     0.381152379859    -1.490727636163     0.829203961828
