19
-1 1 C4H9NO3PS
C                     1.730334473313    -0.311154993350     1.241423795965
C                     1.711608098351    -0.576749548687     2.754742547013
C                    -2.106094468602    -1.231560028010    -0.233056930349
C                    -0.253866670697     1.160993744249    -3.236042576550
N                     0.644723298041    -0.838189898876     0.616767426929
O                     2.670768098090     0.338984089477     0.753012815365
O                     1.297276656640    -1.285666879062    -2.046919052391
O                    -1.065413925794    -1.488998607837    -1.173308618709
P                     0.401043489737    -0.745433902311    -0.979310311197
S                    -0.112610201623     1.325753777888    -1.413238560880
H                     1.545028240160    -1.640657457307     2.954241715131
H                     2.652437706435    -0.252244096951     3.207160290771
H                     0.880635684495    -0.027158046507     3.212901614793
H                    -2.964466953455    -1.840688025180    -0.537237452731
H                    -2.390589260074    -0.171053495872    -0.247787260647
H                    -1.786576406241    -1.500985852811     0.778384946995
H                    -0.370300780930     2.165918507905    -3.653673057162
H                    -1.118907412834     0.550236426322    -3.508674723113
H                     0.651989726660     0.694324776656    -3.627363271140
