19
-1 1 C4H9NO3PS
C                     1.611250878623     0.298726959635     1.666685768678
C                     1.765664989783    -0.322509337088     3.063043200822
C                    -1.646295284850    -0.956726710630    -2.048717947984
C                    -0.663573468720     2.527595451877     0.368184844686
N                     0.695809118732    -0.356453964903     0.917447039888
O                     2.280019253560     1.312053607450     1.380973440989
O                     1.291804286935    -0.715338652405    -1.739775793809
O                    -1.106604735908    -0.774664201483    -0.741572326869
P                     0.426062474955    -0.141980261788    -0.657236619248
S                     0.063880378418     1.925205552799    -1.203767656781
H                     2.026485689334    -1.382685916652     2.975510400290
H                     2.536677603925     0.206347329778     3.629774959236
H                     0.811782887125    -0.269682539250     3.600391172214
H                    -2.610384326885    -1.460876352827    -1.924467234171
H                    -0.981143031798    -1.570305606735    -2.665630559973
H                    -1.804190720586     0.009495375948    -2.546464561807
H                    -1.021093736285     3.547634093473     0.195009337615
H                     0.106132104170     2.532608612182     1.141888843537
H                    -1.501484406537     1.896831827486     0.674875773171
