19
-1 1 C4H9NO3PS
C                     0.864260348628    -1.479859759743     1.538646008450
C                     0.817937435048    -2.903012376289     0.957857837501
C                    -1.787090517776    -1.293843455441    -2.241054676097
C                    -0.873286164470     2.176053500347     0.040675560847
N                     0.653113101085    -0.424031392277     0.704893249903
O                     1.093867816163    -1.343003404467     2.752483076742
O                     1.147432249991    -1.128588746945    -1.925334666746
O                    -1.254675388173    -1.057189686424    -0.938177160233
P                     0.312656591895    -0.483396328015    -0.854606394145
S                     0.064612458046     1.577400968237    -1.418527665934
H                     1.517677477897    -2.999994048675     0.121408672352
H                     1.061098136384    -3.628741417934     1.738218499363
H                    -0.182762859309    -3.111094100250     0.562350478032
H                    -2.776769029813    -1.742512962931    -2.104909058733
H                    -1.142659648353    -1.972310844301    -2.809878351401
H                    -1.889182793160    -0.351791723173    -2.796389708969
H                    -0.945788771146     3.265519213005    -0.035445533137
H                    -0.336450108529     1.884708647470     0.945533601895
H                    -1.876228016449     1.741615552467     0.058397308749
