19
-1 1 C4H9NO3PS
C                    -0.310222641314    -0.281927287146     2.054373217209
C                    -1.597512760887     0.524755130725     1.831433170858
C                    -1.597859451336    -0.959051724789    -2.384270111579
C                     1.921478901669     2.005440115870    -1.365379392940
N                     0.443466631863    -0.658316251885     0.984472821187
O                     0.008240977245    -0.564846575184     3.222105324138
O                     1.235874679689    -1.007793618527    -1.519450957109
O                    -1.309403223391    -0.816228891171    -0.990299522661
P                     0.244163751447    -0.402198127951    -0.571784808097
S                     0.129667795084     1.746037468366    -1.068178977264
H                    -2.267493697777     0.005144729635     1.140232455366
H                    -2.095954073260     0.685413644099     2.790636420250
H                    -1.357370914994     1.492719686731     1.377228125779
H                    -2.643613094352    -1.274162503001    -2.459292702467
H                    -0.944508728516    -1.710707385821    -2.837835825919
H                    -1.464269294224    -0.005968859640    -2.910292134881
H                     2.045147467633     2.993871960483    -1.818107620842
H                     2.292300049009     1.230405225750    -2.038386831884
H                     2.477751673601     1.964542681602    -0.425363463611
