19
-1 1 C4H9NO3PS
C                     2.001596193778    -0.199864400937     1.629617423664
C                     1.885569380662    -0.414998855884     3.146138231306
C                     0.579188230112     1.218136357956    -2.390553895161
C                    -2.038167604349    -0.784271149154     0.253810461494
N                     1.003311482261    -0.820187036164     0.947079704244
O                     2.941690790592     0.484088872814     1.185247560388
O                     1.816960412276    -1.358213005272    -1.652922223977
O                     0.576208533782     0.849895976122    -1.011986871662
P                     0.879350450636    -0.741755919610    -0.659581006585
S                    -1.055457684122    -1.634484785065    -1.040495537163
H                     1.849023132468    -1.486159487433     3.372380899087
H                     2.732375956727     0.046709011857     3.660808096371
H                     0.950109032104     0.023820435879     3.512518100152
H                     0.450086982734     2.304763130131    -2.427900433926
H                    -0.249208683552     0.734106250272    -2.925822872169
H                     1.523479196914     0.937065538834    -2.866894454712
H                    -3.053288924924    -1.193564612149     0.228818205016
H                    -2.072665867945     0.291871236032     0.064414916193
H                    -1.576769516947    -0.963495665045     1.227004838830
