19
-1 1 C4H9NO3PS
C                     1.259137733212     0.064023880694     1.447045380366
C                     1.397128898432    -0.417542430816     2.897209752378
C                     0.890347261084     2.040502048447    -1.708661454430
C                    -1.618126589248    -2.741949788488    -0.563249401943
N                     0.358688590303    -0.628915441232     0.722645055071
O                     1.978373452975     1.026490655904     1.086521254239
O                     1.134873985764    -0.932071571786    -1.849145340653
O                    -0.186121954532     1.229051003059    -1.208087573773
P                     0.156609651533    -0.348223819915    -0.871085046571
S                    -1.850230593152    -1.045674626275    -1.222056486858
H                     2.381382005241    -0.885616046396     3.021007950883
H                     1.358947720204     0.443289198744     3.573796874065
H                     0.622210189170    -1.139933057484     3.165074843081
H                     0.450990536945     3.014517539477    -1.947025524193
H                     1.318033865567     1.592829410278    -2.612196414866
H                     1.661619605984     2.144515522861    -0.940547456087
H                    -2.580939816778    -3.256906150096    -0.635520557091
H                    -1.294463370668    -2.685492422226     0.477992899517
H                    -0.871213636633    -3.282827477710    -1.150076839560
