19
-1 1 C4H9NO3PS
C                    -0.805554915864    -0.534638801035     2.097543208299
C                    -0.976162341807     0.350697532871     3.339482888543
C                     1.282012031989     1.581628289801    -0.978739122608
C                    -1.536409091712    -3.161776349233    -0.701087603199
N                    -0.208065531139     0.089083141590     1.064510662630
O                    -1.263242963010    -1.700084618993     2.147272959470
O                     1.242323825857    -1.698815551498    -0.367604056822
O                     0.370145827259     0.558729900474    -1.382916076988
P                     0.129373535512    -0.693091851965    -0.328816711390
S                    -1.620081629161    -1.440518736195    -1.338283995723
H                    -2.011117134277     0.713433905494     3.374503016121
H                    -0.804107896657    -0.244607244284     4.241971517464
H                    -0.305794168909     1.214064360487     3.320739267697
H                     1.324383118953     2.306690928001    -1.798186109734
H                     2.285305469306     1.169475068492    -0.811727482271
H                     0.933936889703     2.066113542805    -0.060878207932
H                    -2.374452704840    -3.704987281320    -1.149211470775
H                    -1.618974579853    -3.147003229666     0.387094140334
H                    -0.590109659266    -3.617491142185    -0.999217047678
