19
-1 1 C4H9NO3PS
C                     1.552476462318     0.333887657846     1.674431430763
C                     2.690844568161    -0.508693094227     1.078804686317
C                    -1.893927866999     1.723086354226    -0.431473280184
C                    -0.988806046986    -1.761636130841     0.616837992711
N                     0.609053769483     0.856114649740     0.842418363462
O                     1.530183967425     0.514432836009     2.905154538555
O                     1.620534837691     0.774621068249    -1.733196221334
O                    -0.699918058062     1.653729446770    -1.209001801489
P                     0.505600206892     0.635400735495    -0.746287713866
S                    -0.406456252921    -1.339501378480    -1.073585697244
H                     3.243473039521     0.068864010635     0.331744685939
H                     3.359589331212    -0.836761390287     1.878471844241
H                     2.290677517596    -1.383329607811     0.551782914970
H                    -2.470198912485     2.573262921272    -0.810253850742
H                    -1.656440860837     1.866019304329     0.627237706053
H                    -2.485988750810     0.806428185265    -0.558439503896
H                    -1.573488671158    -2.683655023699     0.532522219195
H                    -1.610527525126    -0.969551103367     1.036448987826
H                    -0.148205174404    -1.928257037309     1.292886253244
