19
-1 1 C4H9NO3PS
C                    -1.167677241836     0.024224277467     1.805084971863
C                    -1.014416033189     0.490862351694     3.258527633737
C                    -0.411919864743     1.270155139237    -1.165746443531
C                    -1.058922503659    -3.037612335814    -2.179946519500
N                    -0.034818278222    -0.512272581174     1.306917482237
O                    -2.274707796061     0.169798954291     1.238586765811
O                     1.210309329584    -2.143146604918    -0.397190746261
O                     0.409940540888     0.103637827388    -1.250621282186
P                     0.129764682139    -1.132530730865    -0.180565794907
S                    -1.764747364750    -1.938688284321    -0.883923309043
H                    -0.183758437438     1.200457764455     3.341306147456
H                    -1.939581281447     0.957627544871     3.606883811456
H                    -0.769975712564    -0.365174673040     3.897168468376
H                    -0.132290418507     1.913364207273    -2.006641041215
H                    -0.236019597756     1.800560887719    -0.223048495928
H                    -1.474511132837     1.013283795045    -1.228426769746
H                    -1.883199524025    -3.641131541394    -2.574254255400
H                    -0.289504316329    -3.682004548841    -1.752153169390
H                    -0.618723017187    -2.453078077056    -2.992452156859
