14
0 1 C5ClH4NO2S
C                     1.172009213485    -0.664306416199     0.337106949742
C                     3.284588515966    -1.799275865531     0.776775861975
C                     0.839086732537    -0.831540554386     1.668365059639
C                     2.412992622884    -1.160545647570    -0.105390922693
C                     2.889043965922    -1.944278776963     2.102015808792
N                     1.699772266853    -1.468982786766     2.486954176421
O                     2.618676369731    -2.361958338761     4.637282763859
O                     4.836281949473    -1.385259448305     3.878073516195
S                     3.875976360450    -2.528091042210     3.776831575671
Cl                    2.852831438044    -0.956743422046    -1.774612529732
H                     0.493664255064    -0.161604803937    -0.342080210085
H                     4.253006375753    -2.162827065223     0.447331662833
H                    -0.092516792590    -0.476151569203     2.096547106285
H                     1.576258855647    -1.624370594578     3.536001323145
