15
0 1 C4H7NS3
C                     4.490528699202    -1.481432246867     5.615923623551
C                    -1.004399830446    -2.183086254893     3.290413793953
C                     3.602004739364    -2.507995315380     3.494678102310
C                     2.648759930113    -1.374088633807     3.106545388199
N                     4.431167954548    -2.139004179254     4.614468061020
S                     4.682473280543    -0.650278002429     6.958628714949
S                     0.295010008323    -3.242885425270     2.550518053949
S                     1.571165043443    -1.824997259412     1.693331439351
H                    -1.738520384378    -2.862358024864     3.734365977657
H                    -1.487388490922    -1.576605863603     2.522456532607
H                    -0.592197834873    -1.542172170210     4.072721690364
H                     4.245729067251    -2.768591977175     2.650745223087
H                     3.030494351986    -3.402416780602     3.764209524423
H                     2.034195483787    -1.078819106396     3.960954854337
H                     3.211372017482    -0.495820112437     2.773814061935
