15
0 1 C4H7NS3
C                     4.603409982435    -4.415685816895     3.992044983858
C                     4.178637620352    -4.287800385909     0.484494719984
C                     4.380318517317    -1.998556292958     3.347812301884
C                     2.859509363396    -1.848438878493     3.269548606417
N                     4.807513928929    -3.232719729966     3.945396044199
S                     4.468264255993    -5.991060613218     4.147432881631
S                     2.861982139708    -3.009580453687     0.422392768585
S                     1.991601126374    -3.155548954775     2.317564000942
H                     4.541728642250    -4.394520744633    -0.542246813544
H                     3.769690699637    -5.239619417126     0.825282790448
H                     5.005828634405    -3.990424018810     1.130727802941
H                     4.788171316522    -1.169469258126     3.934804260696
H                     4.809464439085    -1.921433450638     2.342170825906
H                     2.415017191390    -1.901568011147     4.268960084386
H                     2.627528070395    -0.870623170118     2.838291754421
