15
0 1 C4H7NS3
C                     3.982986020356    -3.096297860931     5.379296551524
C                     1.700267338592    -5.255039286497     3.937781718606
C                     4.414397487350    -2.316062545275     3.025797470316
C                     3.065519612582    -1.714163807316     2.621485835044
N                     4.355778273429    -3.087402418478     4.238889943938
S                     3.524807933947    -3.250045986697     6.891476915389
S                     0.875155472383    -3.639446762866     3.685146766076
S                     1.811005951548    -2.888973722940     1.971104949982
H                     1.248399103033    -5.680010423415     4.839018605294
H                     2.771851592373    -5.133617823932     4.094028709121
H                     1.511490819501    -5.917475886772     3.091137324772
H                     5.137587573780    -1.502707287445     3.172127960367
H                     4.794544441092    -2.956764207642     2.225939035997
H                     2.627728771436    -1.149590451618     3.448380165894
H                     3.238422863269    -1.019764247337     1.791375561990
