15
0 1 C4H7NS3
C                     5.703974742577    -2.058492380242     2.116988883260
C                     3.727416848986    -3.978069133261     0.034180270426
C                     3.964299730568    -2.548381532712     3.869151810678
C                     2.715658010367    -1.869748453175     3.298837459047
N                     5.042102139373    -2.652918474515     2.922017585306
S                     6.635476125919    -1.401958084989     1.011735925245
S                     2.677285561036    -2.493995429554     0.257798616126
S                     1.735030868140    -2.848695923435     2.091270743819
H                     4.255124682711    -3.827069527468    -0.912231495758
H                     3.110831564852    -4.876081621493    -0.034045224402
H                     4.453560575060    -4.075725919349     0.840817560066
H                     3.716832235834    -3.552037223581     4.224487100249
H                     4.321571438306    -1.969575141000     4.731331333970
H                     2.018957556125    -1.690331433200     4.125635797151
H                     2.966328270792    -0.904288111901     2.852546312072
