17
-1 1 C4H9N2OS
C                    -0.973245845111    -2.043216452365    -2.488990598498
C                     0.022730960546    -2.626393085822    -1.495398445272
C                    -0.111813922215    -1.116122030376    -1.663477965220
C                    -0.980931212744     1.294284424103     1.324087044303
N                    -0.783338262650    -0.321423401951    -0.677251143834
N                     1.482261176509     0.777111106322     0.103547428045
O                     0.337481961755    -0.953806462068     1.661957432715
S                     0.135275766449     0.065597113957     0.559896307590
H                    -0.764419627024    -2.147662629693    -3.553056672894
H                    -2.026200134727    -2.079947626828    -2.221307507713
H                    -0.368884840300    -3.033137877909    -0.568361523678
H                     0.912190394564    -3.121646724639    -1.882729059026
H                     0.719810940684    -0.646007171915    -2.194347876201
H                    -0.503050308293     1.630259686045     2.248057759677
H                    -1.107911253274     2.124102977635     0.626955374135
H                    -1.939667786046     0.816510969084     1.537866874384
H                     2.155810995635     0.595954966610     0.852819166909
