14
1 1 C3Cl2H8N
C                     0.162452863335    -1.370678520610     3.175520578965
C                     1.182432401128     0.795173459136     2.337606349666
C                     1.432180168089     1.628325691510     1.084345505095
N                     0.450005436525    -0.475957662797     1.996706839773
Cl                   -0.135704352364     2.098047847563     0.343650987967
Cl                    2.465379679752     0.708445584767    -0.061860540755
H                    -0.456992311407    -0.822287716228     3.884601800815
H                    -0.364472132084    -2.254556632627     2.816372324170
H                     1.108839144346    -1.654355325824     3.634978909092
H                     2.129076491984     0.516840629360     2.804409315512
H                     0.567781561331     1.351262638326     3.047886163189
H                     1.961626888712     2.543324836998     1.344972308823
H                     1.005391603791    -0.984249720075     1.293636107935
H                    -0.428597466632    -0.220000223524     1.523928092650
