21
0 1 C4H12NO3P
C                     1.688741652565     1.492438026868     3.097244410791
C                    -4.068158272478     1.432884873380    -0.274700679113
C                     0.693452967785     0.765099736159     2.208232491356
C                    -2.822732134641     0.786205831620     0.307421753964
N                    -1.695462557689     3.558629332264     0.978312505233
O                    -1.450189238050     2.528804759389     3.514308671788
O                    -0.092352467190     1.706988370719     1.419931673617
O                    -2.619496642034     1.227520082805     1.677956232537
P                    -1.463530499336     2.278655643265     2.055022919821
H                     2.343102458261     2.132235627014     2.496832348580
H                     1.163801092853     2.105364024131     3.833321946716
H                     2.311718466051     0.762500534119     3.626511481043
H                    -4.936306115649     1.236954830920     0.361427780883
H                    -3.931226964542     2.513396865299    -0.367319587028
H                    -4.269188546063     1.023436917099    -1.271126179418
H                     0.023158419313     0.133594708037     2.798989964071
H                     1.195373218144     0.137598071222     1.467995199213
H                    -1.937565645452     1.014471427459    -0.292081541639
H                    -2.929752499801    -0.300281846324     0.366960640835
H                    -0.845606693199     4.100559179242     0.837472646792
H                    -2.444579819142     4.175941790553     1.284351889569
