17
-1 1 C4H9N2OS
C                     0.868500597991    -1.122167446082    -2.806884785336
C                    -0.594978295983    -1.471924414087    -3.046535131436
C                    -0.099033408852    -1.320025926718    -1.630549262398
C                     1.889709282151     0.712236414509     0.033789229635
N                    -0.589280523245    -0.195463064739    -0.893253407073
N                     0.657718472140    -1.175389560464     1.323094106769
O                    -0.448836108351     1.230692235594     1.156422478665
S                     0.224105929581     0.087714128395     0.459551216603
H                     1.624583382026    -1.879640182854    -3.012234362067
H                     1.168552014099    -0.097861106701    -3.012749542541
H                    -1.241349383066    -0.677185007267    -3.409620311218
H                    -0.833923698662    -2.466656827783    -3.420391935595
H                     0.061762653555    -2.257077950365    -1.089443693594
H                     2.445264479201     0.875393887884     0.959278826481
H                     2.398479488080    -0.017932942527    -0.598387377285
H                     1.740495998701     1.652368101353    -0.501657826089
H                    -0.212850071014    -1.658280148527     1.571678308295
