20
-1 1 C4H11NO3P
C                    -1.382512902163    -3.542486098814    -0.848290082041
C                    -0.061347799789    -0.535575984459     2.229107690925
C                    -1.250876578439    -2.055300780191    -1.161098870593
C                    -0.068552484011     0.792692411784     1.470685118102
N                     1.920077116530     0.226344169262    -0.532786506170
O                    -0.137803492523     0.385754475307    -2.376374126125
O                     0.056388139299    -1.634662853196    -0.792115767377
O                    -0.549878416772     0.665546341905     0.133227977646
P                     0.435015550098     0.000509502402    -1.037509316079
H                    -0.633603935443    -4.117580185391    -1.404604500219
H                    -1.223812820728    -3.725374240828     0.220608195221
H                    -2.379879776976    -3.912772877715    -1.121797313082
H                    -1.059184472837    -0.990607789553     2.225158552529
H                     0.637080857264    -1.229654572002     1.756341982728
H                     0.244989294355    -0.372729497947     3.272367840341
H                    -2.004775019492    -1.481957227702    -0.601304535452
H                    -1.419399173174    -1.860819910688    -2.228286402602
H                     0.941600063644     1.214925638732     1.452164741245
H                    -0.746466046586     1.504261909546     1.962632510624
H                     2.580284176798     0.122078573658    -1.301265726749
