8
-1 1 C2H3O3
C                     0.052038694219    -0.408241511618     0.407086645856
C                    -0.243240104377     0.293035727527    -0.924655163762
O                     0.829508339268    -0.027568090052     2.611218241376
O                    -0.134197758386    -1.621221027072     0.534827024077
O                     0.497472589988     0.468056396154     1.285375175417
H                    -1.297131021780     0.142238606102    -1.188024513053
H                     0.358940653284    -0.166634241734    -1.717698748126
H                    -0.029888569163     1.365130002304    -0.883037244138
