14
0 1 C4ClH4NO3S
C                    -1.292984960669     1.454517309663    -0.308004288113
C                     0.021411203166     1.502445339434    -0.526863896618
C                    -1.756148055156     0.171040779744     0.303889660128
C                    -0.756459145451    -2.000394871550     1.122754875120
N                    -0.685861195725    -0.701670401937     0.455052300127
O                    -2.905688414859    -0.079850306331     0.623521432088
O                     1.357061991922    -0.765355027120    -1.155052174278
O                     1.654252490817     0.170013958992     1.175513530810
S                     0.824586345613    -0.043421334391    -0.005630577816
Cl                    0.993019287144     2.737045485227    -1.193481727123
H                    -2.006611915301     2.240573537594    -0.526109686799
H                    -0.346086467869    -2.777520292116     0.473658768825
H                    -1.812357316683    -2.199321903852     1.309530310590
H                    -0.212848292978    -1.974162202523     2.071053009891
