13
1 1 C2H7N2S2
C                    -0.165125631591    -0.013954053788    -0.086249350001
C                     0.521567351333    -1.507623682405    -2.309776613234
N                     0.173437470957     0.891602093712     0.951671761200
N                    -0.843864890535     1.072362879837     1.930525635886
S                    -1.733402304107    -0.512385153042    -0.278150163094
S                     1.224119775261    -0.391330997671    -1.049708925159
H                     1.367586495834    -1.782038923330    -2.942433041006
H                    -0.231609598927    -0.981432597568    -2.896179068633
H                     0.101506497379    -2.394664284436    -1.835705244938
H                     1.116114643062     0.880578274059     1.335984276234
H                    -0.656951964243     0.583298095502     2.818264487247
H                    -1.699658895927     0.610971539445     1.448624498080
H                    -1.017834909561     2.071787767157     2.101186799774
