11
-1 1 C2H5N2S2
C                     0.170831463698     0.362868333544     0.334995109329
C                    -0.370379215576    -2.186664757571    -0.843717086048
N                     1.021870605473     1.335495036027     0.451018038285
N                     0.564194893449     2.477902912447     1.167226885571
S                    -1.499309731622     0.284822468584     0.811921737933
S                     1.017455447167    -1.074765937052    -0.444285512429
H                     0.081436620856    -3.099631444520    -1.250197543534
H                    -1.038793422790    -1.743230400226    -1.585880794908
H                    -0.950479958870    -2.416742346139     0.051816079950
H                    -0.464897869678     2.458687376656     1.196076187735
H                     0.860710447979     3.285082698688     0.618716809938
