11
-1 1 C2H5N2S2
C                     0.441256343322     0.195949950107     0.819464799231
C                     2.140271484589    -1.921997320707     1.799187037845
N                     0.072590021460     1.029883486174    -0.100647960272
N                     0.467951010513     0.752711930495    -1.453988132452
S                     0.066019233327     0.335184385434     2.497812173103
S                     1.478458927123    -1.273192177209     0.232890255403
H                     2.735944944798    -2.805618877029     1.539652704592
H                     1.323808570088    -2.190804622017     2.471267749907
H                     2.766375333216    -1.179799892675     2.299168224151
H                     1.456576269396     0.470007324360    -1.479954329002
H                     0.413832618105     1.656509860254    -1.921601501445
