11
-1 1 C2H5N2S2
C                     0.527193103053     0.241755439503     0.588187237836
C                    -0.029865671665    -1.793808602386    -1.381330730858
N                     1.314813398898     1.107289946311     1.143584708327
N                     2.727784577118     0.964921686500     0.925172741408
S                    -1.192093176705     0.224964625441     0.730252601903
S                     1.371713342520    -1.087610438524    -0.460103862823
H                     0.382318818726    -2.601507495595    -1.998358327763
H                    -0.503787452147    -1.040816366723    -2.014755328144
H                    -0.779559270602    -2.181168368512    -0.689594170523
H                     3.105660588027     1.892870348677     1.111162475722
H                     2.911578252466     0.769268091506    -0.067771847081
