8
0 1 C2H2N4
C                     0.516076889059     0.095180771212    -2.060797169249
C                     0.764402264720    -0.398361561423    -0.699238303476
N                     1.102262138380    -2.973358538205     1.378818673721
N                     0.323676961312     0.530000869707    -3.120328284910
N                     0.739000223994    -1.876724479925    -0.707602113336
N                     0.935341183142    -2.384232603499     0.412417106109
H                     1.737416721804    -0.014835356099    -0.367030894401
H                    -0.008582873349     0.013669287656    -0.038245764308
