8
0 1 C2H2N4
C                     0.414340109634     0.310367048483    -2.049464669946
C                     0.753627142481    -0.394001950849    -0.797792367735
N                     1.721121752080    -3.123085070632    -2.476988017968
N                     0.160103454106     0.843261993647    -3.050776730201
N                     0.515334797398    -1.848859950091    -0.859489181061
N                     1.181377158269    -2.451002596409    -1.727355708335
H                     1.794071841590    -0.164278768134    -0.537564807045
H                     0.115627485410    -0.020392854542     0.004490634852
