22
0 1 C7H13NO
C                     1.433980656506    -0.592103159779     0.283110537973
C                     0.579728504169    -0.509751274019     1.311534553400
C                     1.222278127441     1.941252883463     1.969069110001
C                    -0.277717566017     1.796735719668     2.106759977738
C                     0.633977846769     0.597033339806     2.328161584226
C                    -0.514367752504    -1.531705748789     1.515915841670
C                     0.768406395211     0.159286727291     3.770994523491
N                     2.116847772865    -1.014034586380     5.270455319332
O                     2.020536324582    -0.519597388623     3.914297384341
H                     1.355390919083    -1.388372190369    -0.453647593930
H                     2.245024500030     0.118296078457     0.151929640032
H                     1.621718781740     2.085096944429     0.971354221795
H                     1.759925988849     2.472831029347     2.748755780016
H                    -0.769575495839     2.240380663084     2.968949126763
H                    -0.866063853355     1.803685160554     1.193896374510
H                    -0.330862658656    -2.129165959975     2.416732789199
H                    -1.488306100080    -1.044847474669     1.647276215354
H                    -0.580985427046    -2.218871308129     0.668187391278
H                    -0.047693900606    -0.512658414862     4.064433187713
H                     0.737422196384     1.031081247039     4.438588109146
H                     2.979087807571    -0.587668443082     5.618172769574
H                     2.331594420293    -2.005620485922     5.142825470355
