22
0 1 C7H13NO
C                    -0.677388137231    -0.752769129260     0.685032165540
C                     0.406945800050    -0.587217340677     1.454994209457
C                     1.501632560280     1.690509363745     2.001770922802
C                     0.001984848465     1.932357679140     2.007543574115
C                     0.547783663492     0.579540233501     2.396192437093
C                     1.556969012791    -1.568574758039     1.432529409173
C                     0.480555990504     0.161866661988     3.859022692102
N                     0.636864529620     0.881950208312     6.070683256930
O                     0.662199724681     1.311895526342     4.691198957654
H                    -0.766255734359    -1.595660630066     0.003084245871
H                    -1.507676917633    -0.052095427308     0.712888434917
H                     1.991069202734     1.607046650352     1.035100781880
H                     2.091483520683     2.156948006957     2.784285769836
H                    -0.396145922901     2.558112254933     2.799279736220
H                    -0.495449979437     2.027617530594     1.047803305106
H                     2.506303657549    -1.048493394523     1.259007529159
H                     1.654941273166    -2.093733650976     2.389851978633
H                     1.424757780362    -2.321994685308     0.651243306329
H                     1.260456167649    -0.573979279530     4.090944076950
H                    -0.495229407792    -0.296847470352     4.068845864179
H                    -0.125411691571     1.429297946201     6.477309698533
H                     1.498901233275     1.275537151933     6.454553940744
