22
0 1 C7H13NO
C                     1.587711007209    -0.720130971185     0.595009284601
C                     0.506917106715    -0.500212870672     1.356819274210
C                     0.935644761524     2.020440400629     1.860891100899
C                    -0.556965142102     1.776728137886     1.998008663338
C                     0.430131805371     0.669442499078     2.301782036773
C                    -0.689313976481    -1.423880298712     1.332954583241
C                     0.612695810468     0.250170023916     3.761713951157
N                     1.516076976131     2.025982193093     5.038158731966
O                     0.321182118310     1.270959901355     4.722569339426
H                     1.646152295876    -1.572186170247    -0.078910953281
H                     2.444654941139    -0.051736168899     0.621856640583
H                     1.336476490416     2.106919783964     0.855927003501
H                     1.428468508550     2.643354596577     2.598533562005
H                    -1.072374320649     2.231333690737     2.838728113948
H                    -1.137419740905     1.701844466600     1.082448410086
H                    -0.864814275457    -1.880847304865     2.314019360314
H                    -1.600580141880    -0.869836548194     1.079060225992
H                    -0.559785175084    -2.230354347765     0.605944451195
H                     1.631630567235    -0.119496876800     3.917842532979
H                    -0.091551763861    -0.553648947276     4.002268317144
H                     1.638531350277     1.859979868325     6.040830909947
H                     1.206449558635     2.997461247792     4.959743649482
