25
0 1 C7H10N2O4S2
C                     4.731976877249     1.361006759314    -4.958396226718
C                     4.030485982806     0.447379447535    -4.220802989675
C                     5.962529711690    -0.633277057388    -4.295524616316
C                     2.614722987334     0.980826827248    -2.264339642848
C                     2.870862606445     0.153169676865    -0.068022179653
C                     5.735481731446    -3.221531468495    -2.123706311690
C                     2.611742296151     0.604635314402    -3.741273523584
N                     4.734550101980    -0.687408737436    -3.866670631031
N                     6.890251954815    -1.641672064648    -4.021994990496
O                     2.571817833562     2.120746988683    -1.846148112682
O                     8.380941484927    -2.863515287798    -2.406311861142
O                     6.961148715036    -0.959144478971    -1.478944150874
O                     2.712453778855    -0.112451564879    -1.479550222825
S                     6.372029310376     0.822901884591    -5.187514633966
S                     7.125720626177    -2.110965835874    -2.363626723379
H                     4.390337762828     2.300633150715    -5.371518884802
H                     2.915439954912    -0.826274002865     0.407412708978
H                     2.023393341759     0.729398292923     0.309379667309
H                     3.796544617417     0.706031435998     0.105358727552
H                     5.803035472848    -3.572118974841    -1.092010218941
H                     4.824731323324    -2.647687298490    -2.296414772246
H                     5.836797142934    -4.046300808879    -2.828629883447
H                     2.112358752003     1.405683259714    -4.286935630970
H                     2.071823285531    -0.334860174432    -3.883010242144
H                     7.800619947734    -1.563923004602    -4.471525665103
