25
0 1 C7H10N2O4S2
C                     4.687896844234     1.890033360858    -5.168295626772
C                     3.920515010187     0.912617488199    -4.596724151176
C                     5.501993870927    -0.389064637513    -5.439758889670
C                     3.013501804988     0.986646136116    -2.296650441316
C                     3.437481745365    -0.561829381357    -0.565576347600
C                     5.028209057383    -3.485516832977    -4.153751622658
C                     2.677963754549     1.135630460462    -3.775819212041
N                     4.383732900974    -0.376996798850    -4.773270612330
N                     6.195969612879    -1.572275214897    -5.705714365031
O                     3.302491163098     1.910420246281    -1.562252868407
O                     7.599285577174    -3.508318010047    -4.925453754705
O                     6.845161981801    -1.824491403041    -3.165263568842
O                     2.988697284709    -0.307411276255    -1.915310976146
S                     6.093065860118     1.192260359661    -5.923480958008
S                     6.583366707166    -2.613906318728    -4.367226879504
H                     4.515491686888     2.957794944305    -5.189442294250
H                     3.346404034324    -1.638976197807    -0.428641139627
H                     2.812565402149    -0.025406972658     0.151727261500
H                     4.477202318378    -0.247540029054    -0.452865533514
H                     5.179510516440    -4.174536597513    -3.320540381734
H                     4.264167686229    -2.741117022312    -3.928605928651
H                     4.813294496734    -4.023154068507    -5.076887402229
H                     2.296516003846     2.145434730135    -3.929403060034
H                     1.917194090293     0.403770324028    -4.058431185705
H                     7.012475639447    -1.501037765096    -6.310003756291
