25
0 1 C7H10N2O4S2
C                     4.615793327135     1.569969986673    -4.724664886472
C                     3.798473378390     0.664837630742    -4.108055418940
C                     5.519063915928    -0.668313753504    -4.513303586748
C                     1.336588210309     0.333862426677    -4.482711476483
C                    -0.914842964126    -0.381109574714    -4.544043665544
C                     7.694799163809    -1.494792325695    -2.248743081207
C                     2.418316108580     0.925954479026    -3.586069329680
N                     4.330445978259    -0.606422785060    -3.978147059897
N                     6.238630392615    -1.869194621599    -4.594564795942
O                     1.450504410704     0.102996655112    -5.667947686020
O                     8.172595140610    -3.388671614226    -4.061913976101
O                     8.601152744323    -0.935160802506    -4.672396164212
O                     0.197891136161     0.131649865369    -3.778860525765
S                     6.107162892297     0.823422748428    -5.217240327675
S                     7.834346438118    -1.970815839305    -3.986484839529
H                     4.432512800219     2.619310022399    -4.916068479367
H                    -1.734910189277    -0.479553919370    -3.833149154481
H                    -0.660695998843    -1.350598859600    -4.978220459179
H                    -1.178363499346     0.313688154074    -5.344862556500
H                     8.707659590626    -1.497874830573    -1.842256898024
H                     7.265405714108    -0.493637282902    -2.195692028650
H                     7.069350267232    -2.226014581336    -1.735677453898
H                     2.300351527895     0.520308481083    -2.577982033677
H                     2.230527838514     2.003027200083    -3.524836207885
H                     5.676863692299    -2.673098975533    -4.315327988612
