25
0 1 C7H10N2O4S2
C                     4.403579115457     1.502875359419    -4.826545660308
C                     3.948248256446     0.384527048767    -4.192312506703
C                     6.058842149534    -0.240439941999    -4.417179123233
C                     2.496204844952    -0.026493669810    -2.184050585108
C                     1.043270441913    -0.513526022066    -0.383120448115
C                     6.685003969525    -1.658613911178    -1.627802562795
C                     2.555591519290     0.147416827363    -3.697080733488
N                     4.892267834716    -0.604067999390    -3.978048389514
N                     7.207013321415    -1.007711114508    -4.283375379614
O                     3.426941588391     0.082341635597    -1.410675512228
O                     6.454925491939    -3.402903496633    -3.622257182025
O                     8.775371952897    -2.504976512855    -3.066382187311
O                     1.233110670699    -0.320552159299    -1.801983427188
S                     6.110972375535     1.351207286390    -5.174265502432
S                     7.325660498368    -2.326926103609    -3.174302174897
H                     3.860973286927     2.395651898448    -5.107375756718
H                    -0.015918841146    -0.737948087405    -0.260629031564
H                     1.312242227375     0.393345702314     0.163250317516
H                     1.657249099650    -1.344459022804    -0.028583623453
H                     6.731497479254    -2.482462319170    -0.912951107972
H                     7.336480362540    -0.841424854416    -1.316625317543
H                     5.658103042529    -1.326784191753    -1.780231645570
H                     1.891641757947     0.971731212932    -3.972236404459
H                     2.137024389723    -0.758394515847    -4.149026980352
H                     8.108724753058    -0.566628939281    -4.436750207900
