25
0 1 C7H10N2O4S2
C                     5.163039325413     1.215641149822    -5.235821771582
C                     4.444597604304     0.229086302067    -4.619518327231
C                     6.474019295805    -0.586440852497    -4.245874522191
C                     2.098706980113     1.202404247573    -5.062259107881
C                    -0.142089515715     1.860519719040    -5.436221694565
C                     6.192359290776    -3.736705676485    -2.966898300483
C                     2.953935109855     0.102813877303    -4.467149173775
N                     5.201705203509    -0.782666493348    -4.048644794042
N                     7.455687583610    -1.472072906504    -3.788480692283
O                     2.482023980519     2.231324763517    -5.585149545119
O                     6.720153930731    -3.302030096286    -5.530173748044
O                     8.687687421384    -3.656533794454    -3.945720964298
O                     0.790775208041     0.884997448821    -4.922232653023
S                     6.864899016442     0.857734672852    -5.158643540285
S                     7.340667196755    -3.149583592997    -4.216304353664
H                     4.794677449784     2.116360120190    -5.702550345696
H                    -1.130705360536     1.446470429326    -5.240182239424
H                     0.010835437857     2.004226781319    -6.508134900776
H                    -0.014570878620     2.816072561155    -4.922486409371
H                     6.026521910545    -4.795315187699    -3.175303960274
H                     6.653439342674    -3.592434453091    -1.990186667440
H                     5.274214202646    -3.158326891710    -3.070492370207
H                     2.626246662488    -0.849147904759    -4.899253201443
H                     2.701975006438     0.029648640216    -3.402536136522
H                     8.423341464967    -1.174896055090    -3.898115081737
