25
0 1 C7H10N2O4S2
C                     4.332331161489     1.338973106162    -5.220212382686
C                     3.760183306075     0.667733822907    -4.176293090137
C                     5.598583655839    -0.548749962246    -4.381562401268
C                     2.661335927068     1.643305602947    -2.138862476181
C                     1.610760950486     2.098542898135    -0.071692298781
C                     5.646310434225    -3.444335077086    -5.847736855161
C                     2.461642535038     1.004878338939    -3.508916763477
N                     4.483953518898    -0.418380340595    -3.715538921440
N                     6.556098655300    -1.518663488501    -4.051375724165
O                     3.652246374235     2.241138555977    -1.776025554596
O                     7.665340286541    -1.798741931017    -6.321083123675
O                     7.937204771599    -3.575685396403    -4.492315820602
O                     1.552097158677     1.486054863807    -1.378647252056
S                     5.865479193349     0.635890748300    -5.643268300276
S                     7.129185043540    -2.613148203581    -5.234659740762
H                     3.947163453748     2.193772676448    -5.760891900334
H                     0.650923699169     1.878520015243     0.395074471344
H                     1.758237892380     3.177138575329    -0.163208840607
H                     2.430779168535     1.671469017361     0.509832793769
H                     5.971892359410    -4.115498619206    -6.644402519946
H                     5.196603850529    -4.005684261875    -5.028128130312
H                     4.961977772164    -2.690898004476    -6.239548626203
H                     1.893711052512     1.717593272524    -4.115995786488
H                     1.839874870311     0.113241668788    -3.393546246521
H                     6.337040409545    -1.991768743255    -3.175010272214
