25
0 1 C7H10N2O4S2
C                     5.114431652184     1.516115828322    -5.345175750032
C                     4.468900787385     0.733927732340    -4.428669867689
C                     6.155507167570    -0.628121045695    -4.872456863435
C                     3.463593867823     1.441839086254    -2.238646237150
C                     2.442258832021     1.651481808902    -0.117903254339
C                     8.837574257462    -2.206275594031    -6.721833099980
C                     3.208815054367     1.085887797367    -3.698561376616
N                     5.064042498582    -0.489238169248    -4.176996461901
N                     7.007471623324    -1.737987439426    -4.753883898294
O                     4.516279869884     1.833438318561    -1.779702267272
O                     7.427450100262    -4.113394605325    -5.513583063512
O                     6.241585640958    -2.527906100067    -7.138010078964
O                     2.330092742372     1.296979544804    -1.513395402367
S                     6.563865177550     0.732420593309    -5.896285456339
S                     7.248630262061    -2.790233980981    -6.112378732766
H                     4.830173974437     2.489439864658    -5.722726401626
H                     1.453640563568     1.476806581866     0.305979497352
H                     2.728059135422     2.700772604688    -0.013381536964
H                     3.189713095880     1.024257909082     0.372939581300
H                     9.094830075356    -2.840902603651    -7.571828164535
H                     8.730357578140    -1.168961078667    -7.040438426905
H                     9.569157025661    -2.305368630570    -5.920517618546
H                     2.725559900249     1.951816451237    -4.162844178330
H                     2.495170779765     0.259013273620    -3.740107227595
H                     6.741176670198    -2.318338404164    -3.956475379832
