25
0 1 C7H10N2O4S2
C                     4.547100367741     0.573480895142    -6.280214640693
C                     4.444410487242     0.598628311669    -4.917106857349
C                     6.607965837893     0.127185049073    -5.055730680384
C                     1.944814769976     1.216539809145    -4.783678422083
C                    -0.325297958111     1.774677988953    -4.423914665399
C                     7.787015161488    -0.626295289066    -1.943961281220
C                     3.231527255581     0.860684100245    -4.067825843355
N                     5.625538461254     0.356605701176    -4.232139230261
N                     7.905740826005    -0.163666573602    -4.621945551969
O                     1.771485997310     1.309723798945    -5.983764455424
O                     7.150909741869    -2.509825162549    -3.700543468068
O                     9.579537058903    -1.735266553086    -3.601440149615
O                     0.964691430912     1.427680817688    -3.874817959786
S                     6.175419100571     0.179355815340    -6.753273719443
S                     8.145267148842    -1.459594976670    -3.493690366587
H                     3.778675043861     0.775582196941    -7.010603140595
H                    -0.980849671828     1.903149854124    -3.563117554068
H                    -0.690396927059     0.974442177198    -5.071524926755
H                    -0.256818786311     2.700916487972    -4.998901937555
H                     7.882400036350    -1.380494652032    -1.160571233288
H                     8.515403625539     0.173774281668    -1.814624079015
H                     6.769426377540    -0.240865850277    -2.008666038355
H                     3.031181186963    -0.018440815063    -3.444172138131
H                     3.451685025744     1.664752589076    -3.356791412546
H                     8.623800444126    -0.222524705742    -5.341390444901
