25
0 1 C7H10N2O4S2
C                     4.620187381854     1.109811814393    -5.857814294290
C                     3.905541226622     0.423323977598    -4.915595712447
C                     5.853163890254    -0.609766444183    -4.667114166008
C                     1.646778545355     1.617120448742    -5.258875270930
C                    -0.502387191038     2.598366680680    -5.378577098064
C                     6.533367414291    -3.488923734069    -5.986875938046
C                     2.466497434315     0.586484906500    -4.510105573068
N                     4.617233170699    -0.565225841782    -4.250374809235
N                     6.800122047784    -1.467658409669    -4.087386032264
O                     2.014170809581     2.322902822194    -6.178535028282
O                     8.448224329931    -1.660927304606    -6.014019463930
O                     8.429037909470    -3.384159124355    -4.115561077993
O                     0.392193217851     1.652969685881    -4.752511191443
S                     6.266058330083     0.545603273464    -5.913257487136
S                     7.740680558383    -2.512155950032    -5.062608290755
H                     4.269078313158     1.885613413498    -6.521443003819
H                    -1.449863296638     2.492849692100    -4.850930199094
H                    -0.622334016637     2.363719593980    -6.438655515255
H                    -0.114150461855     3.614162194189    -5.275915094620
H                     7.102908590391    -4.134963244003    -6.657231781114
H                     5.949920328945    -4.081373922971    -5.281374250770
H                     5.900584449664    -2.809379019785    -6.558988709010
H                     1.950349312712    -0.376342921029    -4.598432446339
H                     2.415618590707     0.832160649533    -3.443153614878
H                     6.428306592341    -1.951690459434    -3.270511618980
