25
0 1 C7H10N2O4S2
C                     4.885332432901     1.514452613765    -4.938285465964
C                     4.068923563269     0.663662687997    -4.247943356371
C                     5.796376677253    -0.697276670015    -4.506899187805
C                     1.584716504501     0.145203369051    -4.384831298235
C                     0.809356059270    -0.850757344327    -6.379250012792
C                     9.134042387131    -1.915402846602    -5.265884683469
C                     2.690833825864     0.973758527868    -3.742592042689
N                     4.602435931235    -0.589738547288    -3.999067001399
N                     6.522940993375    -1.897285417024    -4.483592291950
O                     0.587571143269    -0.229262057694    -3.801080327584
O                     8.369315440442    -0.756762718541    -3.010297700479
O                     8.185210100883    -3.304463057305    -3.204421153109
O                     1.823072673648    -0.085848260134    -5.693878702869
S                     6.381510731921     0.725139575275    -5.344940054503
S                     8.109060674751    -1.965408034511    -3.788056620250
H                     4.707728792099     2.544203546339    -5.218867468221
H                     1.164336535521    -0.948905476748    -7.404936663301
H                    -0.148728509499    -0.326494851126    -6.349742599390
H                     0.696915961661    -1.832256163131    -5.913289020806
H                    10.169365021264    -1.981925586753    -4.926627295130
H                     8.870469680329    -2.765626748550    -5.894242160250
H                     8.962029873983    -0.969231485624    -5.779977147405
H                     2.624511617417     0.801233765889    -2.666075640341
H                     2.454541950557     2.027330531334    -3.924277401945
H                     5.966515664945    -2.652916394848    -4.080088789656
