18
0 1 C4H10N2OS
C                    -1.796184507518    -1.639290878327     1.310187411099
C                    -0.378507218778    -1.599810591213     1.839312063889
C                    -0.630095845085    -1.632561882084     0.349868788441
C                    -2.561163300226     0.674143143198    -1.524828122542
N                    -0.246331372430     0.736296530622    -2.784774687245
N                    -0.363893529722    -0.409626865804    -0.375472620313
O                    -1.466714151146    -1.603460421687    -2.404382036524
S                    -1.082920346198    -0.250362385124    -1.942620134497
H                    -2.365830148491    -2.558528833816     1.402406652635
H                    -2.373959845061    -0.724498757548     1.395482718090
H                    -0.033555185138    -0.661939962171     2.262980541143
H                     0.034694461338    -2.493375741873     2.297198240273
H                    -0.424813934244    -2.562585770902    -0.175557386613
H                    -3.114334717987     0.093292910346    -0.786903662900
H                    -2.261136755446     1.643388032881    -1.129508150015
H                    -3.135980113819     0.781436722553    -2.445421486079
H                     0.484541896132     0.237139315567    -3.296182005470
H                     0.628036832434    -0.197920944713    -0.479967032143
