25
0 1 C7H10N2O4S2
C                     4.743196021502     0.487741084585    -4.656608982356
C                     4.258833770449    -0.194582212230    -3.575603305142
C                     6.173783916531    -1.280496516083    -3.800795561452
C                     1.926609645151    -1.048657619379    -3.203156340199
C                    -0.083768551362    -2.046896811072    -2.463988769204
C                     9.640675193389    -1.859890559087    -4.643961101969
C                     2.944421964136     0.043732601718    -2.897134127663
N                     5.087303440688    -1.190128929109    -3.089810095410
N                     7.157921334618    -2.258758738897    -3.584865943661
O                     1.941764333237    -1.777568794095    -4.172990648626
O                     8.740033911527    -0.391288308945    -2.632158757288
O                     9.198176537771    -2.877577754122    -2.224220331918
O                     0.963678506354    -1.075425799867    -2.252496868544
S                     6.280839159762    -0.159314847768    -5.141637954360
S                     8.749331745622    -1.781088965569    -3.083059820951
H                     4.295372091569     1.316761924640    -5.188504311769
H                    -0.761153661699    -1.931629134415    -1.618169944737
H                     0.335059462570    -3.055349001222    -2.489259087139
H                    -0.602532718716    -1.848808916241    -3.404865257097
H                    10.677779741819    -1.603010869771    -4.420640487243
H                     9.561025810353    -2.874463450985    -5.033068544626
H                     9.208369522745    -1.131877583309    -5.331061117419
H                     3.075772463373     0.109260224124    -1.813982467523
H                     2.509236786284     0.992879229812    -3.226727152604
H                     6.828184489895    -2.968751129818    -2.928468287255
