24
-1 1 C7H9N2O4S2
C                     4.477575308935     1.992317219559    -4.692324686918
C                     3.735580243560     1.077619144153    -3.999883527127
C                     5.459434873136    -0.291664243075    -4.431349017822
C                     1.297720064809     0.597144186556    -4.185729166486
C                     0.254718243832    -1.497730799120    -4.482939864076
C                     4.324604607993    -3.263323323376    -4.224388779123
C                     2.367078382279     1.348458306032    -3.416116220776
N                     4.269381896832    -0.180336274876    -3.850665883257
N                     6.289350361350    -1.332228012348    -4.562085010023
O                     0.667365822492     1.039384788906    -5.131520594102
O                     5.919096973531    -2.499265002676    -2.253717823247
O                     6.925012991938    -3.726587718257    -4.215609300565
O                     1.128617502435    -0.660005734798    -3.710778887761
S                     5.982512273974     1.256363780982    -5.210029563207
S                     5.981607206315    -2.700949328709    -3.720010114321
H                     4.220599251157     3.014913967292    -4.936769733095
H                     0.276627111706    -2.471512668995    -3.992374349046
H                     0.618059820556    -1.580800688394    -5.510436835114
H                    -0.761926038172    -1.093613435386    -4.494902814524
H                     4.143034254820    -4.205051738952    -3.700938202516
H                     3.603172310670    -2.497414708100    -3.939456754982
H                     4.337607751501    -3.420486653024    -5.304968690937
H                     2.351240923297     1.026382402122    -2.370526860825
H                     2.134173616837     2.412855158520    -3.482525351871
