24
-1 1 C7H9N2O4S2
C                     3.582003449500     1.083751450758    -4.915803065245
C                     3.329351203459     0.533388138324    -3.691864601972
C                     4.984521187015    -0.876664458242    -4.254833778123
C                     1.481730813941    -0.297684025437    -2.326209079072
C                     1.848241114386    -2.294290406209    -1.097498352835
C                     6.162020910400    -2.064077819242    -1.525936828175
C                     2.234669316950     0.957916856635    -2.734629658966
N                     4.110347544736    -0.534998308157    -3.318656452654
N                     5.901014480232    -1.854147568157    -4.276495165691
O                     0.527837085259    -0.759698212699    -2.926761362660
O                     7.017722267446    -3.856646194291    -3.269058408399
O                     4.532529261575    -3.620507256491    -2.905072886512
O                     2.051723701000    -0.870369112139    -1.243076511646
S                     4.891254486817     0.208675852383    -5.695838521253
S                     5.854321931079    -2.965492070256    -3.076134812176
H                     3.069932252005     1.903244534511    -5.403561379841
H                     2.139885534482    -2.530022729533    -0.072290094400
H                     2.507078626990    -2.807756160282    -1.804282114782
H                     0.801831191085    -2.555828400176    -1.269804628128
H                     6.170461985424    -2.808244183381    -0.726061110928
H                     7.135183791108    -1.575852130043    -1.607431214015
H                     5.358657613704    -1.339736163825    -1.390144272554
H                     2.668814105948     1.425666875060    -1.844442294068
H                     1.546620661389     1.651411999844    -3.221850191929
