24
-1 1 C7H9N2O4S2
C                     3.827954750981     1.667799353325    -4.778927077495
C                     3.307095724512     0.734610460901    -3.928888599241
C                     5.197968556221    -0.386300882528    -4.390731592383
C                     2.327013793565     0.528389599185    -1.700811713772
C                     2.987707702158    -1.334530975693    -0.388592928947
C                     4.617521397650    -3.477222736923    -3.792892114599
C                     2.014146943689     0.863136397400    -3.150049253067
N                     4.051022736507    -0.403899734315    -3.726208017733
N                     6.186755600454    -1.289096090265    -4.446800653700
O                     2.700253090253     1.335161035247    -0.867876205925
O                     5.994371119389    -2.142831807979    -1.975380103874
O                     7.259327637584    -3.436714126195    -3.733224066154
O                     2.198259839898    -0.797576410515    -1.474198256811
S                     5.381889567482     1.112027050740    -5.382930379679
S                     6.129226449253    -2.544661062372    -3.398641773259
H                     3.419734676333     2.632961455615    -5.050049026384
H                     2.577861084934    -2.326498004537    -0.189439578136
H                     2.909843207395    -0.700814351963     0.497674423468
H                     4.024793464798    -1.416387969633    -0.727708587755
H                     4.592111403391    -4.335157369968    -3.116890506328
H                     3.762817735442    -2.818955984275    -3.635661277814
H                     4.686439717742    -3.807476878829    -4.831263264558
H                     1.628163313483     1.882392888619    -3.212167127408
H                     1.268923532197     0.157232794741    -3.532193321603
