24
-1 1 C7H9N2O4S2
C                     4.856240571780     2.205820496338    -4.924994137838
C                     4.009901788368     1.338223653646    -4.297343652394
C                     5.558723588824    -0.193656908835    -4.851831837684
C                     1.771623160043     0.440837134428    -3.795449368761
C                     1.193446388668    -1.256024440804    -5.344931106116
C                     5.109560380164    -2.746296672351    -2.948747860831
C                     2.666474470622     1.665716898123    -3.683302736958
N                     4.404064143413     0.021769503763    -4.236463301295
N                     6.254567585626    -1.323745068823    -5.037000013795
O                     1.323427303199    -0.181674352370    -2.848669242320
O                     6.501120619806    -3.813163046711    -4.925615465969
O                     4.203168302008    -2.899856426905    -5.426803430320
O                     1.556194355564     0.119604230981    -5.088299246363
S                     6.262139465915     1.331668185193    -5.515075491415
S                     5.502656077997    -2.742224405002    -4.723622052819
H                     4.733465140528     3.269098525324    -5.088134825712
H                     0.887999338843    -1.285466506112    -6.392285880619
H                     0.372264372346    -1.567221805373    -4.694615944864
H                     2.078081345808    -1.881510400952    -5.193393300642
H                     4.646874947486    -3.711521381597    -2.730382530299
H                     6.045434635261    -2.634602947448    -2.397703910085
H                     4.425149913178    -1.922076517368    -2.748197646229
H                     2.751679976240     1.904201413910    -2.619188301057
H                     2.208746745769     2.515807320412    -4.199686083123
