24
-1 1 C7H9N2O4S2
C                     4.062450254870     0.924645543320    -5.728717396748
C                     3.677444470064     0.309637207274    -4.572427667478
C                     5.474533352019    -0.983000835399    -4.942617681034
C                     2.825612985959     1.018543895896    -2.295796195837
C                     4.354635711038     2.092622251831    -0.859167361941
C                     6.340614610012    -2.237812015736    -2.132475815258
C                     2.485081910408     0.696112511902    -3.740625270917
N                     4.446920607590    -0.743668498344    -4.134030897259
N                     6.478981496344    -1.862998718477    -4.874818157985
O                     2.184624303164     0.652478136059    -1.325852437687
O                     7.732965371614    -3.739748164982    -3.798619902268
O                     5.215463308268    -3.907974505147    -3.851866538722
O                     3.920985633939     1.808820216830    -2.197216773406
S                     5.503507921012     0.147793384574    -6.356475421585
S                     6.422597447585    -3.055242271470    -3.756640925034
H                     3.608350187966     1.778016806105    -6.216287345424
H                     5.256022090288     2.697479418487    -0.966789084083
H                     4.580068414889     1.164319972275    -0.327940155799
H                     3.585503353486     2.641610354406    -0.307558054138
H                     6.343473505768    -3.030614475213    -1.380892529793
H                     7.224771736006    -1.605398591431    -2.029556499395
H                     5.422770226832    -1.651474680885    -2.092849718655
H                     1.997093710649     1.577600229916    -4.172805658857
H                     1.751801515258    -0.114182016692    -3.704096374444
