24
-1 1 C7H9N2O4S2
C                     4.642272994916     1.595758321471    -4.945937119717
C                     3.742460954910     0.982106462412    -4.123952881327
C                     5.319138230978    -0.610557394776    -3.974871045496
C                     2.277207274656     1.781813552048    -2.270553813167
C                     1.593557917960     0.852941057588    -0.215148028343
C                     8.288535533796    -1.039014274899    -2.527540285153
C                     2.385134575471     1.541587175387    -3.764233972410
N                     4.110909303388    -0.226781973444    -3.584318716216
N                     5.880630616412    -1.763932691142    -3.566073432132
O                     2.739879631365     2.738852995826    -1.674817746002
O                     7.981525209822    -1.553671079871    -5.094295723761
O                     7.729250351800    -3.454026306811    -3.441144985189
O                     1.596640105332     0.786534747007    -1.649503331730
S                     6.067827065270     0.600675645380    -5.132070583853
S                     7.452992706331    -2.047907978762    -3.794959477666
H                     4.546609735799     2.553738599995    -5.442216034087
H                     1.051990123446    -0.033656136275     0.117529739896
H                     1.094740450550     1.762771448795     0.132041901013
H                     2.617762750569     0.838385488064     0.165694486509
H                     9.364194298638    -1.200947888388    -2.628664817129
H                     8.042008905559     0.011006012840    -2.699576986990
H                     7.935310751111    -1.366884224757    -1.548625544504
H                     2.238326640574     2.500637455523    -4.266984692317
H                     1.601633469118     0.841998487804    -4.070707768903
