24
-1 1 C7H9N2O4S2
C                     4.564699923334     1.461106645457    -5.404535610961
C                     3.806245716298     0.537548402552    -4.746643494611
C                     4.993836579210    -0.945366725862    -5.946315198070
C                     1.382106827447     0.273737401961    -4.062430654146
C                    -0.190328871022    -0.096667637463    -5.777986589117
C                     8.080472341621    -2.217917725504    -6.014452828315
C                     2.745593104791     0.852032904826    -3.725664118812
N                     4.044378181070    -0.785344050657    -5.034275867724
N                     5.386396834374    -2.158056146370    -6.379910971003
O                     0.647889539921    -0.296928662011    -3.273761163936
O                     6.999431013738    -1.234744140204    -8.207844052663
O                     6.784510859685    -3.716913242282    -7.760560063404
O                     1.042299608110     0.502009961772    -5.351987155043
S                     5.652299376140     0.668321643537    -6.521066626527
S                     6.738520385812    -2.335685071259    -7.242501855492
H                     4.517496940427     2.540700207993    -5.326591385067
H                    -0.280385233004     0.144430209395    -6.837938855753
H                    -1.036531862269     0.310621365759    -5.216161917438
H                    -0.153899703286    -1.179607653178    -5.635780860795
H                     9.028049123185    -2.348597164536    -6.542216252106
H                     8.036784809926    -1.232650688700    -5.545033689716
H                     7.932824755951    -3.008259489783    -5.276814346621
H                     3.009421435935     0.449829458644    -2.743532726862
H                     2.633074249738     1.938402528627    -3.629421151352
