20
1 1 C7H9N2OS
C                     3.440278505133    -1.868989507220     0.813773270784
C                     3.868430822603    -2.278476342151    -0.408024279081
C                     1.608046255520    -1.296313702287    -0.461761214096
C                    -0.530273655267     0.981154149811     0.356727427810
C                     0.335097081778     0.890031400499    -0.914876122370
C                     0.258835036152    -0.672200893498    -0.701480818909
C                    -0.568766005571    -1.428882086999    -1.738461201199
N                     2.168671356548    -1.324445297275     0.747060010962
N                    -0.404361954733    -0.409874065647     0.598643192132
O                    -1.124457529255     1.841211810075     0.941980404472
S                     2.660833642643    -1.975496612820    -1.622263913644
H                     3.958543108032    -1.934109096954     1.761839281972
H                     4.811435343731    -2.744452526814    -0.662498603969
H                    -0.161456539067     1.241129753356    -1.820770498776
H                     1.323538848464     1.346432816757    -0.832157733766
H                    -1.529160379947    -0.925495407212    -1.872754481363
H                    -0.755305158124    -2.459552893610    -1.423032228730
H                    -0.063474039113    -1.448779769257    -2.709252198521
H                     1.639400904853    -0.958444049431     1.543565028130
H                    -1.143120058986    -0.989163585568     0.998588543905
