24
-1 1 C7H9N2O4S2
C                     3.811719377195     2.194373594213    -5.470346607763
C                     3.626349166517     1.154560997283    -4.604799749959
C                     5.572295566083     0.420164175805    -5.452607243552
C                     3.116736039500     0.710825194140    -2.257476807104
C                     4.331134400768    -1.027202806719    -1.191792466464
C                     5.668016463182    -2.740749524614    -4.959835038386
C                     2.492912505434     1.017312818033    -3.609223721955
N                     4.584848149835     0.168632182043    -4.604695941266
N                     6.679715404232    -0.280254759071    -5.733551160687
O                     3.480241772287     1.552204311770    -1.454964406196
O                     7.089524105909    -1.229336139615    -3.324115328341
O                     8.227605090782    -2.211393404421    -5.350045810236
O                     3.274508499744    -0.620825872170    -2.091000276055
S                     5.305581409354     1.956525641568    -6.364815746560
S                     7.035724849694    -1.555670237288    -4.771883665320
H                     3.196234575281     3.074378742895    -5.606245961929
H                     4.146085141360    -2.081430005656    -0.977253880931
H                     4.306226675058    -0.437258007321    -0.272886246876
H                     5.286374795490    -0.910658421248    -1.712546318962
H                     5.921176486508    -3.612290896569    -4.351569520693
H                     4.753630406535    -2.260752022447    -4.610545704282
H                     5.601660509104    -3.014066468822    -6.014806736741
H                     1.924236751037     1.946892462583    -3.544401662107
H                     1.831396641755     0.193532816779    -3.898095179382
