24
-1 1 C7H9N2O4S2
C                     5.558611371505     1.177694751646    -3.776507137123
C                     4.689103997995     0.132142693397    -3.650208317001
C                     6.548418119055    -1.122128921981    -3.771281374582
C                     2.799411014503     1.435741869390    -2.672103000522
C                     2.550562150286     2.210845256208    -0.456719758685
C                     9.170667572689    -1.894063230529    -1.859766980333
C                     3.180656492508     0.253181788384    -3.527905747921
N                     5.226488731327    -1.131937724299    -3.638883591311
N                     7.279811616441    -2.252968497733    -3.782551097593
O                     2.558928082147     2.561906868291    -3.074507883301
O                     9.531569065669    -1.060982601124    -4.333749255869
O                     9.421744950309    -3.552698964975    -3.899931646558
O                     2.772588090632     1.110669552442    -1.351312280440
S                     7.193455928280     0.582026069907    -3.944806048651
S                     8.886188190858    -2.203371697045    -3.633669894010
H                     5.327960948606     2.234877601100    -3.815736790035
H                     2.576114741929     1.782777617674     0.546500710387
H                     1.581641879072     2.680456623720    -0.649524977966
H                     3.337715013318     2.961211751594    -0.571298271986
H                    10.250336034968    -1.859916314142    -1.696516646942
H                     8.713621555087    -0.937921520014    -1.595384394270
H                     8.716993096557    -2.711925898129    -1.297785629865
H                     2.717327993101     0.383953357169    -4.510762752954
H                     2.808062236381    -0.668585988720    -3.077109133257
