24
-1 1 C7H9N2O4S2
C                     3.328194004026     1.290062299059    -4.680149419989
C                     3.502059166588     0.481019163441    -3.593894273095
C                     4.555408846832    -0.853825032243    -5.061365941418
C                     2.254480706281    -0.537809022328    -1.756855030618
C                     2.775630340999    -2.784280615650    -1.199341920222
C                     6.534251918123    -2.715139078027    -3.371314686384
C                     2.960872025117     0.732445776853    -2.201485058578
N                     4.191043285747    -0.691443205657    -3.797190091904
N                     5.224420008274    -1.852153289754    -5.654267867737
O                     1.082279279758    -0.790429946370    -1.971621590984
O                     6.331374636153    -4.098286156743    -5.614122055613
O                     4.270884453187    -3.805875329293    -4.188343502994
O                     3.116809277626    -1.380326929315    -1.146452901727
S                     4.065050938606     0.546664681238    -6.091828426837
S                     5.495002593291    -3.209158178162    -4.780605918655
H                     2.797115015129     2.231405695880    -4.739595827850
H                     3.416421333772    -3.270807058617    -0.461540256152
H                     3.007070486800    -3.154892007727    -2.202496660193
H                     1.722139973702    -2.936601449935    -0.954263565342
H                     6.747859278768    -3.624110852752    -2.804067244779
H                     7.455522310984    -2.283187141181    -3.767178208575
H                     5.975338218529    -1.993680829854    -2.774932102253
H                     3.780661728571     0.952788880751    -1.509301549879
H                     2.248464204817     1.559586127480    -2.210274083493
