20
1 1 C7H9N2OS
C                    -3.515310695295    -1.445984618188     0.464318034333
C                    -4.152061970408    -1.368652502157    -0.732424710308
C                    -1.792066132959    -0.665341190484    -0.852236929100
C                     0.759591133690     0.959101705577     0.278035326348
C                    -0.261508656383     1.398233502942    -0.789263100037
C                    -0.402801813313    -0.141714339656    -1.105706955019
C                     0.158589081223    -0.581757792936    -2.456260892766
N                    -2.193701486238    -1.045053478065     0.360487268934
N                     0.451245124101    -0.409771161846     0.076137980029
O                     1.548051355479     1.500545873711     0.999408916751
S                    -3.074455923391    -0.797363062139    -1.972282919620
H                    -3.914204804788    -1.773874819658     1.415652836652
H                    -5.179920528234    -1.620475538093    -0.958794253618
H                    -1.149006922616     1.899738370358    -0.398195801954
H                     0.167420054016     1.983382395738    -1.604187585260
H                     1.161105395348    -0.166645592585    -2.584523621811
H                    -0.462306970429    -0.216287495047    -3.280280727716
H                     0.220212704049    -1.671750132170    -2.524952042373
H                    -1.517770274412    -1.030639865620     1.129533455269
H                     1.135115459908    -1.164662646269     0.136993412174
