24
-1 1 C7H9N2O4S2
C                     4.391042748583     1.777513394533    -5.579943340967
C                     3.771079705147     1.129081633183    -4.551295398912
C                     5.691425580198    -0.034840424288    -4.448026540335
C                     2.394317773907     1.074048409797    -2.509825067297
C                     3.757169144433     1.293973273195    -0.584434143721
C                     5.079632318506    -2.758371734284    -2.852259328687
C                     2.397110750058     1.423408193263    -3.990189042962
N                     4.475517582185     0.117265029580    -3.941288650066
N                     6.679343593740    -0.877061669240    -4.116028812437
O                     1.705728389197     0.206773058136    -2.001481441700
O                     6.292142961785    -0.817962443963    -1.529228982480
O                     7.707054468791    -2.600656689767    -2.618197051597
O                     3.275566621327     1.840139252537    -1.833278612879
S                     5.996275474709     1.102397957003    -5.817411487253
S                     6.544442632926    -1.692047412016    -2.704062705786
H                     4.021300567117     2.599299736521    -6.180114950345
H                     4.309716704598     2.104927294179    -0.106816071007
H                     4.430188600992     0.460769848218    -0.806935121157
H                     2.923201444686     0.972545325612     0.044346373197
H                     5.010996023408    -3.330664795924    -1.924249012073
H                     4.206053079821    -2.121854143827    -2.992681761559
H                     5.233794864112    -3.423522764936    -3.704177603146
H                     2.147538786350     2.480440105502    -4.128806611122
H                     1.623390108583     0.813384897046    -4.465257857382
