24
-1 1 C7H9N2O4S2
C                     4.891692132245     1.709130776407    -4.260944033913
C                     4.096296143508     0.688088507897    -3.827003401484
C                     5.931150894834    -0.562243727113    -4.154736781288
C                     1.712481103163    -0.082705127423    -4.193569164992
C                     1.179823017719    -0.970169108265    -6.311152938689
C                     4.966972564729    -3.586149658781    -4.539024308574
C                     2.654220033490     0.825115221192    -3.421262696696
N                     4.661140305644    -0.565095426059    -3.762084676835
N                     6.826282658750    -1.546017923254    -4.292063315807
O                     0.798089849996    -0.723353464603    -3.704569622915
O                     6.173462309081    -3.035094161388    -2.247195999881
O                     7.556174758679    -3.933926667918    -4.157485354179
O                     1.976251637573    -0.074759928487    -5.521898813497
S                     6.492330240197     1.093501143982    -4.625841529223
S                     6.480918623609    -3.029391266215    -3.695936975157
H                     4.627059742788     2.749055574781    -4.404815987811
H                     1.547297023949    -0.863989626859    -7.332730972666
H                     0.119981449664    -0.704498150322    -6.253060430721
H                     1.308895784780    -1.998889272426    -5.964965842481
H                     4.755637586279    -4.593575425062    -4.173162853474
H                     4.164141551514    -2.892627527534    -4.289453006338
H                     5.165708273010    -3.599352979444    -5.612617192044
H                     2.517088955865     0.574238184772    -2.365865227649
H                     2.319584500076     1.858200134239    -3.571885364269
