20
1 1 C7H9N2OS
C                    -3.913174449133    -0.956452332246    -1.647946354790
C                    -4.117468513124    -1.484264376840    -0.414411839605
C                    -1.799966113701    -0.727330379510    -0.752405145299
C                     0.585071442420     0.347094942047     1.132512532461
C                    -0.173304668644     1.108607026054     0.023147311883
C                    -0.360367076914    -0.311786031882    -0.644862265269
C                     0.420315393485    -0.526984369102    -1.943529758372
N                    -2.597563622512    -0.542053632111    -1.808932116643
N                     0.235659413288    -0.895165371961     0.570848656569
O                     1.242564003517     0.643615021042     2.090118439275
S                    -2.657526459705    -1.459630854885     0.528748714715
H                    -4.622058425468    -0.842491458710    -2.458126046638
H                    -5.036819686077    -1.892406810608    -0.015149316938
H                    -1.084075349545     1.610265169649     0.355710634967
H                     0.444849954009     1.796260005231    -0.556282773381
H                     1.460616950158    -0.232651702317    -1.786496399938
H                     0.030650743100     0.090025405115    -2.760557558962
H                     0.399540848713    -1.575872117066    -2.253553254426
H                    -2.258638319331    -0.124193208126    -2.673639657057
H                     0.769605240890    -1.761328663006     0.632533880914
