24
-1 1 C7H9N2O4S2
C                     4.544279726206     1.395067499192    -4.494115658131
C                     3.856631292661     0.333444016840    -3.981251282208
C                     5.874095521281    -0.657899117365    -3.971333644012
C                     2.179438207747    -0.672294425570    -2.483323592123
C                     3.162193303832    -1.238993491415    -0.403110413587
C                     5.384438846944    -3.831800996161    -3.816673719454
C                     2.381309142831     0.282903142841    -3.649706096077
N                     4.581653792770    -0.804434414871    -3.713413534091
N                     6.899033777628    -1.507683796936    -3.819956443821
O                     1.538150396950    -1.707117495250    -2.535185773991
O                     6.082624728075    -2.597671950379    -1.586105668764
O                     7.889561195746    -3.654353637264    -2.994728402048
O                     2.825329664481    -0.231449797993    -1.383518190694
S                     6.243739683252     0.974643312164    -4.649108641535
S                     6.644109398106    -2.860564532170    -2.936504901553
H                     4.170566292028     2.375321322772    -4.761858815822
H                     3.507605282429    -0.687673267831     0.473149388133
H                     3.972941924683    -1.854656895930    -0.803597441736
H                     2.287942618644    -1.846564982613    -0.156816707992
H                     5.243511113336    -4.754113418326    -3.248430683845
H                     4.466785745450    -3.245065058575    -3.857183954756
H                     5.766669478287    -4.049860134175    -4.815831366990
H                     2.015318780163     1.280957948027    -3.387423697944
H                     1.788735174088    -0.101242792499    -4.485020144359
