24
-1 1 C7H9N2O4S2
C                     4.150137866195     1.016445036200    -5.185942988234
C                     3.800785734631     0.266735450820    -4.100205778826
C                     5.372257235180    -1.143222269564    -4.871872641211
C                     2.150552895074    -0.730110708326    -2.567177081718
C                     1.483697151787    -2.866499333964    -3.344862355898
C                     6.221868953180    -3.062188484375    -2.435642243600
C                     2.717268545333     0.580282875506    -3.091883342929
N                     4.486522430834    -0.910875965999    -3.912761722659
N                     6.203405521083    -2.176492410509    -5.064531654121
O                     2.216768167390    -1.101709433951    -1.408604894720
O                     7.047621906996    -4.468902089161    -4.514595768703
O                     4.573317272579    -4.053018454272    -4.248525700016
O                     1.581040379212    -1.440774688629    -3.563056397058
S                     5.426135735683     0.200272698198    -6.077359700585
S                     5.960922537000    -3.526807070197    -4.173706228509
H                     3.733572360011     1.959298593654    -5.517222236357
H                     0.853710401876    -3.241681070857    -4.153216127072
H                     1.031691896373    -3.079092701113    -2.372935029891
H                     2.486382807912    -3.297663701660    -3.418700346557
H                     6.099415536845    -3.972425685855    -1.844134667480
H                     7.238407341533    -2.675346661027    -2.340894090634
H                     5.479707599159    -2.310324078809    -2.167519184299
H                     3.108671066595     1.128338980594    -2.229963264639
H                     1.924255425700     1.174740704536    -3.557268336104
