24
-1 1 C7H9N2O4S2
C                     4.297653004100     2.263711419539    -5.466865902326
C                     3.898949557156     1.320220171796    -4.563753093010
C                     5.758246321204     0.249423915799    -5.228077919284
C                     1.938700460688     0.005394765867    -3.934745463816
C                     2.290902793626    -2.277047637767    -3.389562648105
C                     6.575432287570    -1.750383240957    -2.866364933536
C                     2.621078193963     1.351048512060    -3.750852996374
N                     4.709156644508     0.218778813729    -4.418221358916
N                     6.758598988468    -0.627022532015    -5.392403874149
O                     1.151916026706    -0.256664107812    -4.827138672166
O                     7.885387495709    -2.809353031892    -4.902723085207
O                     5.363421092326    -2.805053070172    -4.963767306613
O                     2.371007565403    -0.883428554810    -3.013329425512
S                     5.800645888485     1.756494798523    -6.223178767321
S                     6.622992290466    -2.081563506483    -4.654767096406
H                     3.795079293970     3.180127966186    -5.748466046829
H                     2.423407486569    -2.840115103293    -2.463784083459
H                     3.110720241842    -2.491615888974    -4.081741023785
H                     1.322026867462    -2.501383807061    -3.841221387698
H                     6.518522813466    -2.721082727665    -2.368193247535
H                     7.497344905769    -1.232193564258    -2.595062805099
H                     5.695250065611    -1.141801788594    -2.657890819382
H                     2.849276753633     1.499544220628    -2.689933594885
H                     1.960220325103     2.144694019626    -4.104559325030
