24
-1 1 C7H9N2O4S2
C                     4.743032992587     1.360972860222    -5.060811665332
C                     4.065438201072     0.732170408908    -4.055463766287
C                     5.348239855419    -1.026274603432    -4.609641234594
C                     2.107926723527     2.278653928731    -4.001537078908
C                     0.273649717297     2.365409881242    -5.484322807618
C                     5.591450368206    -3.260873666816    -7.072558980875
C                     2.992501338589     1.366195982169    -3.188343669927
N                     4.387338920867    -0.580010428619    -3.807902998778
N                     5.815443376663    -2.287659540587    -4.541760107127
O                     2.268961714736     3.477622429762    -4.158332736230
O                     7.276625239368    -4.193575398700    -5.265092129469
O                     7.718302267989    -1.918976692520    -6.284888265024
O                     1.084930372915     1.596626770066    -4.583878019838
S                     5.925651658802     0.277849542813    -5.756483552538
S                     6.748176917388    -2.890364411233    -5.713092158994
H                     4.638475836215     2.385352517105    -5.395601400986
H                    -0.474558608212     1.671367510588    -5.870122262988
H                     0.881771552794     2.763485718723    -6.301323022200
H                    -0.207307389532     3.197374714040    -4.961774721577
H                     6.171206050916    -3.679743951423    -7.898347834072
H                     4.859067282978    -3.981476912787    -6.705291284963
H                     5.105529351595    -2.332002691095    -7.379281834621
H                     2.397506050726     0.561095386107    -2.753072659531
H                     3.438622011126     1.957860020115    -2.382956132815
