24
-1 1 C7H9N2O4S2
C                     4.773786401357     1.462006722975    -4.803242987288
C                     3.819288950271     0.716512282790    -4.175371178767
C                     4.978886328155    -1.026382074032    -4.991082328247
C                     1.302642905148     0.801678676921    -3.882953948272
C                    -0.023738201740     0.361972081978    -5.780160274470
C                     5.469702503846    -2.504412319988    -7.932722180241
C                     2.660605932398     1.270932278305    -3.391144311162
N                     3.927664003799    -0.650026225204    -4.275721656778
N                     5.273337615304    -2.319123179259    -5.224816578967
O                     0.384406893789     0.439810213133    -3.167171771280
O                     6.611295844245    -4.181101009061    -6.240516999331
O                     7.529828724018    -1.830382865222    -6.434441026238
O                     1.199768892146     0.871876775054    -5.231369438577
S                     5.950961395147     0.419836255271    -5.568366737508
S                     6.350629733233    -2.732894137635    -6.352969490270
H                     4.848478748623     2.541496688488    -4.857588142714
H                     0.079078840043     0.458357165269    -6.861977354977
H                    -0.882736682066     0.937658862906    -5.422225904570
H                    -0.155575887976    -0.686832669832    -5.502211606182
H                     6.154210768072    -2.779845216315    -8.738392811286
H                     4.592922833142    -3.153869748483    -7.926970865353
H                     5.178359873513    -1.455391441622    -8.020319127634
H                     2.718340235020     0.976628208256    -2.339489474396
H                     2.670185542774     2.366371814284    -3.437713868948
