24
-1 1 C7H9N2O4S2
C                     4.276824361542     1.197097669088    -5.604293726655
C                     3.765890577544     0.281202668917    -4.729900507585
C                     5.921634759264    -0.256650709045    -4.399708506959
C                     1.505759301132     1.334334185272    -4.557586866146
C                     0.841621840633     3.291917265785    -3.418668770553
C                     8.363277877725    -1.835267234378    -6.024452113262
C                     2.291982495056     0.051625502069    -4.448926220969
N                     4.663115967593    -0.520539133554    -4.066942292041
N                     6.962756773452    -0.930201692361    -3.873940763891
O                     0.977371146601     1.764972704281    -5.569149803361
O                     9.396909859463    -1.479061670549    -3.619594584555
O                     8.786040890437     0.554576224502    -4.998002198711
O                     1.461888742915     1.998186170541    -3.371323698272
S                     6.023290685703     1.116697119001    -5.606024337222
S                     8.437296905200    -0.809473092102    -4.519171685755
H                     3.736150447880     1.894586708501    -6.231409420319
H                     0.908383880010     3.686346437271    -2.403720416841
H                    -0.203325034683     3.211178290997    -3.731948431570
H                     1.372326410194     3.944633277584    -4.117163183165
H                     9.345359717521    -1.798055619926    -6.501528922358
H                     8.113084363633    -2.854602186702    -5.726256802095
H                     7.600029822586    -1.424174531824    -6.688895671026
H                     1.869075646686    -0.666372091191    -5.159049133449
H                     2.203575350894    -0.355304586710    -3.439706353441
