6
0 1 CH4O
C                     0.291365586040     0.766029532268     0.704025558030
O                    -0.316488798002     2.012450734933     0.363406453850
H                    -0.072337566888     0.503451736833     1.699837514403
H                     1.387743850641     0.835871472972     0.741583323171
H                     0.009190993216    -0.036741048909     0.008057283960
H                    -0.006421935876     2.271444714752    -0.517073128659
