24
-1 1 C7H9N2O4S2
C                     3.997708894547     1.089727835297    -5.645360275376
C                     3.605963953295     0.553779839259    -4.453571359692
C                     5.440990671338    -0.720468946086    -4.691639651144
C                     2.685873937828     1.413103895864    -2.252912521368
C                     4.146563200052     2.648340906430    -0.877239853790
C                     8.741566117682    -0.360030964717    -4.463678909004
C                     2.387226926287     0.967740555292    -3.673711754563
N                     4.395068511839    -0.440336670372    -3.926068084709
N                     6.351216267962    -1.656640238935    -4.363662934491
O                     2.037489749509     1.099689109445    -1.269104494927
O                     7.681459225465    -1.483378243141    -6.598496804387
O                     8.456763614954    -2.975055736523    -4.706125919620
O                     3.746964252973     2.252477394823    -2.196987195165
S                     5.447281514143     0.297816563161    -6.218905619010
S                     7.765101970237    -1.744600392399    -5.136824066317
H                     3.525928916491     1.888518072499    -6.204991825024
H                     5.025236293275     3.280013106925    -1.015481933677
H                     4.399722043312     1.769731457351    -0.278420212809
H                     3.347655517260     3.204147161025    -0.376986839734
H                     9.720166913367    -0.375779389634    -4.949061694183
H                     8.219920247034     0.573744975737    -4.684930059828
H                     8.838016855989    -0.507518013896    -3.386872729216
H                     1.884051652796     1.798276752499    -4.182923003239
H                     1.674542706147     0.142793718288    -3.587226396819
