25
0 1 C7H10N2O4S2
C                     4.661862791290     1.336103923201    -5.174287405076
C                     4.059796314739     0.540692789413    -4.238546529095
C                     5.650847525544    -0.867643659000    -4.864198873143
C                     1.624639305474     0.154426557409    -4.042151022360
C                     0.508385594641    -1.922106754554    -4.168379885255
C                     4.922891928451    -3.867483992279    -3.472078044331
C                     2.823611262033     0.886778754564    -3.451464697521
N                     4.641411970676    -0.699704101132    -4.059506394421
N                     6.374925491958    -2.061781168981    -4.908890629722
O                     0.872786044380     0.626404701747    -4.871655408674
O                     4.334613307003    -3.320562824139    -6.000222803319
O                     6.545056219193    -4.496236843813    -5.516616598331
O                     1.527743164000    -1.100815981732    -3.556556259374
S                     5.990464331046     0.493553953367    -5.920555539385
S                     5.496699304765    -3.545062535650    -5.142559130173
H                     4.408366359428     2.346750510699    -5.465176811004
H                     0.564316191449    -2.882146257400    -3.655998891546
H                     0.716781231816    -2.043096964151    -5.233499816067
H                    -0.476572990058    -1.469035820906    -4.036684505355
H                     4.351458806237    -4.796345765609    -3.522603503398
H                     5.796700348494    -3.975643548972    -2.830060556370
H                     4.298857580768    -3.025293180309    -3.172249692292
H                     2.960131060603     0.592101381743    -2.407991009225
H                     2.621733685774     1.956574759797    -3.511470567404
H                     7.202993125103    -2.076085220576    -5.501340781581
