25
0 1 C7H10N2O4S2
C                     4.313724819794     1.058713912586    -5.547870989750
C                     3.823819966636     0.348185062976    -4.489534602769
C                     5.657477930782    -0.842806985914    -4.837221784075
C                     2.851469140109     1.170314989144    -2.324697442036
C                     1.970070424410     1.365468511674    -0.140919600154
C                     5.618760849500    -3.548762569166    -2.773991484470
C                     2.568607061420     0.648883546394    -3.728386560932
N                     4.599353341688    -0.724690160945    -4.088507083601
N                     6.604244404451    -1.853158414239    -4.657554600865
O                     3.831670760357     1.803861244271    -1.993288630165
O                     4.885886798947    -3.731945595181    -5.319060553055
O                     7.310094232122    -4.260286351309    -4.729702679977
O                     1.831281524545     0.865234685584    -1.488720890345
S                     5.797177655755     0.349047711790    -6.119873744772
S                     6.078758543499    -3.499312631029    -4.508862138917
H                     3.918296111933     1.959757411462    -5.997461191502
H                     1.074283930698     1.035571421507     0.384716626503
H                     2.036896155557     2.455900999345    -0.144661814385
H                     2.867007942057     0.952216501512     0.325862722489
H                     5.242715109101    -4.555914888415    -2.584776314513
H                     6.510365848395    -3.340856426203    -2.183027463305
H                     4.846128662047    -2.795380642113    -2.620201675415
H                     1.985323475957     1.417465697232    -4.245881189824
H                     1.939628203591    -0.242251246799    -3.658023079046
H                     7.433287088941    -1.820608364170    -5.247167203977
