25
0 1 C7H10N2O4S2
C                     4.325728601556     1.262661085041    -5.220471721853
C                     4.043550352117     0.303206069007    -4.293036271610
C                     5.726748704063    -0.732101150194    -5.288322564509
C                     1.928586016197    -0.775427195645    -3.471854636296
C                    -0.015429981947    -1.757844861882    -2.551368309433
C                     4.730470023975    -3.761915202542    -5.410543989555
C                     2.944687515844     0.343808195932    -3.277241451324
N                     4.853599681159    -0.817846961620    -4.331142174381
N                     6.631164712804    -1.737039984672    -5.599811886728
O                     1.918564368221    -1.588726683488    -4.374435035128
O                     7.326912309394    -4.096941099401    -5.959656353521
O                     6.647870091205    -3.397106698964    -3.604021655969
O                     1.007932606921    -0.740761876095    -2.482363045525
S                     5.664880828912     0.759520393280    -6.226688244123
S                     6.449719113158    -3.362977319510    -5.044918997291
H                     3.843338514591     2.217493981560    -5.381507644414
H                    -0.661750807778    -1.576933641259    -1.693003153684
H                     0.434150197189    -2.751644807123    -2.493082371319
H                    -0.577113469147    -1.669484618696    -3.484074581657
H                     4.584467189869    -4.781313597922    -5.048038380529
H                     4.081711516864    -3.060620045457    -4.885966911085
H                     4.594468670901    -3.714256000085    -6.491412419367
H                     3.353740240250     0.244493116635    -2.265912098221
H                     2.411544360110     1.298168389033    -3.308382201937
H                     7.114202988935    -1.698753505470    -6.492206576775
