25
0 1 C7H10N2O4S2
C                     5.329649870592     1.462759869148    -4.888757871071
C                     4.679948740116     0.259830773034    -4.901100707255
C                     6.752564807193    -0.509816188188    -4.715322024688
C                     2.282230817418     1.181373633949    -5.121557033909
C                     0.003104682695     1.805650503548    -5.223775110591
C                     6.645300983473    -3.865940456441    -4.110617827289
C                     3.205323580174    -0.014330790920    -5.008120082854
N                     5.500679759868    -0.854529118397    -4.815765278048
N                     7.786487301929    -1.444478034794    -4.594773799773
O                     2.601110321639     2.350573524999    -5.222985424731
O                     9.076685604822    -3.130892630574    -3.251132514513
O                     7.011478145697    -2.097985944413    -2.166919287845
O                     0.995510600534     0.762900703217    -5.106084352653
S                     7.043789261672     1.218436750692    -4.708954715776
S                     7.700899481651    -2.636411971493    -3.337089689900
H                     4.906187126854     2.450288810437    -4.990367161122
H                    -0.958516208036     1.294132417949    -5.194243444998
H                     0.126162445864     2.342942694369    -6.166877487168
H                     0.091752930578     2.509683845775    -4.393405800001
H                     6.503322023461    -4.657146367105    -3.372083199864
H                     5.704003767947    -3.376500337293    -4.360895268886
H                     7.155835460932    -4.239071689851    -4.998031827343
H                     3.017117773412    -0.658608050782    -5.875141318327
H                     2.884508763766    -0.605943408716    -4.143647232534
H                     8.736415704683    -1.079965478863    -4.632501721846
