25
0 1 C7H10N2O4S2
C                     4.278180166473     0.945327323327    -5.484457070460
C                     3.697054221710     0.517235670731    -4.323197853880
C                     5.390466344710    -0.908773359729    -4.373423015464
C                     2.755509472961     1.725585848695    -2.303339791604
C                     4.289386499346     2.982335759704    -1.019828113734
C                     8.704198655250    -2.166635659444    -5.071082571650
C                     2.481509366265     1.106222198994    -3.669682752743
N                     4.341601965212    -0.536571843052    -3.698701730287
N                     6.191538780343    -2.004788852185    -4.013673493646
O                     1.988663023373     1.669567884730    -1.362799442367
O                     8.069979577758    -0.318950228755    -3.282037029835
O                     8.104982819290    -2.772300996120    -2.549033558412
O                     3.936351003349     2.375596002787    -2.281011159199
S                     5.675864822688    -0.019437382754    -5.855182436724
S                     7.844708902677    -1.737402883820    -3.549930786068
H                     3.992781508575     1.777069832903    -6.114956058620
H                     5.270846672338     3.427961730926    -1.178560115139
H                     4.333084376455     2.222772370775    -0.236414400998
H                     3.555671030569     3.744046121120    -0.745512130579
H                     9.770552495022    -2.065274114287    -4.861082262793
H                     8.449835526368    -3.193850774825    -5.330266653090
H                     8.403015630719    -1.468595487258    -5.852733626848
H                     2.055665589668     1.887757951770    -4.307167631515
H                     1.713523677520     0.344170232521    -3.519457502546
H                     5.751228537081    -2.546718138235    -3.267610124459
