25
0 1 C7H10N2O4S2
C                     4.567475796478     1.451933734226    -4.788095728850
C                     4.102693451477     0.293305184563    -4.229154639043
C                     6.018076930193    -0.490613389692    -5.018530247447
C                     1.816059413990    -0.608072701393    -4.505460614266
C                     1.229209597469    -2.705749997906    -5.416188908073
C                     5.909315381505    -3.861009620234    -4.712662290067
C                     2.767148683375     0.112707713108    -3.557446695283
N                     4.943057834763    -0.796515071535    -4.351096314556
N                     7.001320657931    -1.437161503677    -5.317831861781
O                     1.032868913492    -0.049466935309    -5.247562292974
O                     5.392457786724    -2.649328705654    -7.015129479034
O                     7.775077876134    -3.457527046898    -6.600335113099
O                     1.983051654690    -1.945717932597    -4.445620202221
S                     6.105020708863     1.178321895434    -5.558168720060
S                     6.510558834032    -2.906441645701    -6.109458309575
H                     4.106795315707     2.430721562304    -4.794433419713
H                     1.475443347286    -3.749119305997    -5.221061616857
H                     1.530962567022    -2.423086440047    -6.426912004012
H                     0.158670003002    -2.529890985574    -5.290487333226
H                     5.573097851652    -4.815925555242    -5.121274971872
H                     6.736457330247    -3.998375276825    -4.016679188452
H                     5.087774127942    -3.302173651480    -4.263909177870
H                     2.893747578727    -0.473311099397    -2.643724168649
H                     2.327200286197     1.081386192671    -3.318911770075
H                     7.849861114878    -1.094006031958    -5.764077578893
