25
0 1 C7H10N2O4S2
C                     4.516090371525     1.622773299627    -4.658655040749
C                     3.848418605229     0.496491865864    -4.265130629999
C                     5.794494124035    -0.432767187257    -4.769102177606
C                     2.311938243930    -0.024159035209    -2.308161627888
C                     3.240097015919     0.101846017477    -0.141488830788
C                     7.859799909578    -1.330290683996    -2.462242219820
C                     2.438513442726     0.428677102511    -3.757237477087
N                     4.590045230972    -0.670627707861    -4.326495157080
N                     6.724159172495    -1.457033192751    -5.002025088535
O                     1.401093218923    -0.705767016729    -1.883123587095
O                     8.855808719872    -2.708998341630    -4.516157095480
O                     8.869286699383    -0.146818645444    -4.606833944200
O                     3.311140643983     0.461130641240    -1.537416650413
S                     6.137479766911     1.239794581044    -5.157439307582
S                     8.251607066194    -1.412966166911    -4.224555379984
H                     4.167008252634     2.647238921348    -4.648440862229
H                     4.109051071154     0.567946198945     0.322927313000
H                     3.275209500795    -0.984034514287    -0.027437076358
H                     2.316474922491     0.479555829700     0.303081712363
H                     8.811174664776    -1.239577734807    -1.935265460287
H                     7.237927515389    -0.452023855993    -2.284612749879
H                     7.344531344000    -2.248012255729    -2.176879487764
H                     1.967078641673     1.414093600126    -3.831781384853
H                     1.843603479396    -0.267037822678    -4.353401817952
H                     6.298297557333    -2.380896093560    -4.926782910272
