25
0 1 C7H10N2O4S2
C                     4.442162203778     1.209558723461    -4.566595346143
C                     3.883828260152     0.228430577418    -3.797020347730
C                     5.941130801311    -0.588855757990    -3.893132931216
C                     2.354149164828     0.106422945257    -1.809327126264
C                     2.911614548731     1.208875497473     0.204436497329
C                     5.916811107901    -3.683199425691    -2.489714401795
C                     2.457560335033     0.168729148475    -3.327062194516
N                     4.746817112362    -0.781052365269    -3.411441622758
N                     6.996580531899    -1.473013714792    -3.664403945478
O                     1.816536467245    -0.785091156868    -1.184192084690
O                     5.869201637519    -3.349724515486    -5.124053755490
O                     8.133984752037    -3.686302060470    -4.001830931013
O                     2.932363449575     1.186655928492    -1.238206821866
S                     6.117750770472     0.852358422896    -4.882020757249
S                     6.765281771666    -3.166432643011    -3.985271557896
H                     3.987612574375     2.118644424747    -4.937164160621
H                     3.426936873422     2.126243155487     0.488178079126
H                     3.431309665801     0.334724244682     0.603286780365
H                     1.882382728417     1.214342617740     0.570852583063
H                     5.701810296658    -4.746242177198    -2.613618880251
H                     6.585394842327    -3.510365116211    -1.646798008492
H                     5.001837500506    -3.096046443546    -2.409589404865
H                     1.915446276176     1.050409767457    -3.680281098043
H                     1.965921098276    -0.724865117514    -3.717754115453
H                     7.912469647620    -1.196223875802    -4.012296526918
