25
0 1 C7H10N2O4S2
C                     5.239584009879     1.739491017093    -4.555435258067
C                     4.397605890106     0.947612559236    -3.824886999564
C                     5.786281616523    -0.626113929453    -4.544050767102
C                     2.796758175061     2.800060240855    -3.019928773339
C                     1.138172019228     4.314486665640    -2.277567363873
C                     8.198166518043    -1.841079161223    -2.755437970536
C                     3.181385804540     1.334900441930    -3.029228533639
N                     4.727368362882    -0.400460648665    -3.815403969320
N                     6.270055089136    -1.924386741025    -4.765613740890
O                     3.425664710240     3.728405505477    -3.490707590446
O                     7.987093307684    -3.754875240602    -4.599244362933
O                     8.695657290560    -1.397692969588    -5.317427506891
O                     1.615315610489     2.954991389902    -2.378324784451
S                     6.485029124012     0.783596014286    -5.307550027954
S                     7.913914491909    -2.301776062363    -4.479640068451
H                     5.207914637692     2.812518543507    -4.670360170769
H                     0.193853175370     4.250184024976    -1.737776350636
H                     0.986058924040     4.738215421471    -3.272745958625
H                     1.855403993608     4.929744910916    -1.729581051968
H                     9.255535733128    -2.022399652793    -2.554902604646
H                     7.963513060049    -0.782835840639    -2.634692648277
H                     7.570667456658    -2.465877746634    -2.119049160645
H                     2.318008451589     0.760647233816    -3.382053051974
H                     3.314571225755     1.025289338967    -1.985568003454
H                     5.649621247319    -2.635173998451    -4.378794455199
