25
0 1 C7H10N2O4S2
C                     5.196072260271     1.147267977509    -2.614790690266
C                     4.558466337503     0.818316463517    -3.780680980038
C                     6.483215596668    -0.206202197636    -4.177161713361
C                     2.988821138635     2.735106722805    -4.198307338360
C                     2.789782222396     4.672007769306    -2.853698791243
C                     6.170911098123    -2.092922009554    -7.003397239266
C                     3.156718378201     1.225876913481    -4.174662615774
N                     5.304155795365     0.061951294647    -4.665263797347
N                     7.426493331990    -0.974911742596    -4.863268431437
O                     2.953143709461     3.421184288508    -5.198820060563
O                     8.254838201076    -3.187590608422    -5.717093590682
O                     5.973819464059    -3.148783979773    -4.575547548143
O                     2.893805804095     3.233897456183    -2.940496501129
S                     6.785503315669     0.443955649815    -2.576468465144
S                     6.967077489501    -2.540862316139    -5.457575926512
H                     4.835624092240     1.768178973125    -1.806489053631
H                     2.723380235193     4.895040310542    -1.789037397777
H                     1.896732696719     5.019874362853    -3.377358588644
H                     3.672042110504     5.142501566276    -3.293653575590
H                     5.812913158164    -3.024484819786    -7.445675656620
H                     5.347700359253    -1.419743619912    -6.763966771589
H                     6.914303122541    -1.612391287262    -7.638879071168
H                     2.952472834469     0.849929435997    -5.176240942126
H                     2.431014657686     0.797833818186    -3.476566541307
H                     8.353630590875    -1.041731023072    -4.448050242182
