25
0 1 C7H10N2O4S2
C                     0.910469118684     1.039097260469     3.020008673806
C                     0.769440629736     0.126873395446     2.034158203252
C                     3.037812216630    -0.198702348950     2.509434666810
C                    -0.839105311949    -1.622400912332     1.187217755936
C                    -2.620509434297    -3.171148246971     1.137707004754
C                     5.775847988213    -2.824226647503     2.372835269404
C                    -0.469069987475    -0.146523787902     1.234002233755
N                     4.260813147222    -0.652269957744     2.518837050447
N                     1.955875277485    -0.547134040256     1.745551334430
O                    -0.033448783476    -2.526427049763     1.077561680800
O                     3.590154429577    -2.557026848972     0.877937013015
O                     5.593204701787    -1.094264138143     0.369875766961
O                    -2.172470885963    -1.797428703684     1.241559693964
S                     2.558998118750     1.084907787632     3.630663516565
S                     4.741236811673    -1.756876546963     1.362994126663
H                     0.153892241887     1.707274015285     3.406721272079
H                    -3.707690995859    -3.123177867147     1.183985192276
H                    -2.221107711565    -3.759536450436     1.966158825846
H                    -2.289158064612    -3.604587081818     0.191922334731
H                     6.202935304797    -3.569078566010     1.699193759742
H                     6.557679281170    -2.211973663108     2.822053845876
H                     5.153417031603    -3.296100792643     3.133109263950
H                    -0.311614758386     0.163710294223     0.192130476003
H                    -1.301412658093     0.438053328918     1.626098231169
H                     1.996911541394    -1.403465991326     1.183210730845
