25
0 1 C7H10N2O4S2
C                     1.194801500378     0.128601286041     3.548639800053
C                     1.190560589543    -0.079325939341     2.214793087536
C                     3.232980392077    -1.112167700751     2.746460553242
C                    -1.011348678654     1.093916971434     1.621966203837
C                    -2.968999896025     2.170539711942     0.846918163664
C                     6.606929502536    -1.943880258897     1.218996815976
C                     0.193575823011     0.295545006483     1.158283684875
N                     4.381997040970    -1.730010569234     2.649895427988
N                     2.321777579773    -0.781099975343     1.782307311428
O                    -1.285370058273     1.405672692045     2.763427578023
O                     4.719249906036    -3.808372273128     1.175731154937
O                     4.238977702687    -1.592020425325     0.055064010916
O                    -1.770439342997     1.416302793269     0.553352459869
S                     2.631792106274    -0.548730467357     4.305971865647
S                     4.857371841529    -2.348708572214     1.179055250379
H                     0.435073849551     0.628890580487     4.127718035390
H                    -3.449752544655     2.333335614404    -0.116883730941
H                    -2.710989101005     3.121946344776     1.316882502959
H                    -3.620118914503     1.601274432964     1.513670156466
H                     7.043876316614    -2.363257770444     0.311218663952
H                     6.715015069671    -0.859572616432     1.241959709602
H                     7.038280913208    -2.404954463388     2.107438578717
H                    -0.185553152532    -0.608782216905     0.665680731749
H                     0.684518858354     0.871300236483     0.364292603423
H                     2.579678464687    -0.946962327446     0.806335817382
