25
0 1 C7H10N2O4S2
C                     1.557740357369     1.060964688475     2.904789538574
C                     1.226998562788    -0.024835778776     2.174006219555
C                     3.564098421071    -0.266662551367     2.163663218134
C                    -1.326438660201     0.206325786974     2.226242868384
C                    -3.691000296834     0.193993073949     2.196121133159
C                     6.255847829344    -2.929589417969     1.896876299539
C                    -0.107175578128    -0.555592419375     1.739315663641
N                     4.770328693961    -0.731309770968     1.962653254371
N                     2.350623103612    -0.747732346484     1.756800874622
O                    -1.334750282605     1.231200325093     2.877985739168
O                     3.764159326673    -2.912090167916     0.960415028162
O                     5.544339567969    -1.643313657024    -0.312317881437
O                    -2.443395462335    -0.430158084311     1.814661941645
S                     3.300970895181     1.205908998823     3.098159696862
S                     4.983270063919    -2.056651256308     0.977651658148
H                     0.881291747817     1.785599280521     3.329210521697
H                    -4.470449170487    -0.444056055899     1.781522583959
H                    -3.752524069212     1.201601940837     1.779564199646
H                    -3.770430245956     0.245659280330     3.284069144409
H                     6.524096520607    -3.804436009614     1.302276836229
H                     7.108105174101    -2.259587927836     2.009739638372
H                     5.849892966539    -3.222447892297     2.865053918164
H                    -0.220572369924    -1.598224229063     2.060335287505
H                    -0.157955169259    -0.584701409963     0.643536501727
H                     2.330913522685    -1.659469844732     1.293237489326
