25
0 1 C7H10N2O4S2
C                     0.660068987350     0.487608573320     3.221891896385
C                     0.494809870808     0.061992925018     1.950702628460
C                     2.469227639465    -1.089325925206     2.469519877580
C                    -0.076804304097     0.905158259155    -0.346767820570
C                     1.195427644020     0.227885895315    -2.244090592214
C                     4.539525053093    -4.101654565485     1.418703082887
C                    -0.611275361249     0.413795469865     0.995184357492
N                     3.534025280188    -1.842378196024     2.381452544564
N                     1.498875573472    -0.816565151538     1.548346758074
O                    -0.168615269540     2.038444242319    -0.765409516498
O                     2.771884978164    -2.671550761768     0.030356160730
O                     5.097741207164    -1.737407879253     0.347359869325
O                     0.531502351832    -0.109793999884    -1.001202483530
S                     2.099323286351    -0.210071726613     3.958047263694
S                     3.961889016159    -2.481228595421     0.902679926482
H                     0.029498454432     1.171305772927     3.772386201346
H                     1.703337809980    -0.684830781861    -2.550887604854
H                     1.912896583956     1.033023443822    -2.076168687698
H                     0.457673743485     0.539852434835    -2.986069734646
H                     4.910565634347    -4.599852996102     0.521506739375
H                     5.340685183973    -3.958039902839     2.143610640414
H                     3.703276499024    -4.648817027849     1.853773238782
H                    -1.230558422553     1.199649478017     1.425491145892
H                    -1.234816092430    -0.469519952149     0.812717149491
H                     1.535880861729    -1.261153871926     0.627818351039
