25
0 1 C7H10N2O4S2
C                     1.200602362128     0.625259504053     2.258756807400
C                     1.010773706448    -0.572425953913     1.664590809019
C                     3.341660966067    -0.641042166735     1.892643003564
C                    -0.243469164024    -1.628688156732    -0.241630310260
C                     0.887994099988    -3.101067869599    -1.740597219718
C                     6.466664648053    -2.090005153018     0.274321237885
C                    -0.287191822502    -1.186311291250     1.218157900761
N                     4.591934319529    -1.007910661942     1.798850131882
N                     2.201579294456    -1.277848116438     1.490802054355
O                    -0.888384198844    -1.139970274517    -1.143496700865
O                     5.277576816897    -3.454474324113     2.218622176790
O                     3.936082308328    -2.907160014348     0.145520552579
O                     0.638290466407    -2.643661466441    -0.389058583726
S                     2.901495865530     0.911267647095     2.615269299303
S                     4.954484485275    -2.501425659686     1.151646728424
H                     0.447486738215     1.355056902428     2.520342887701
H                     1.724247591280    -3.792487500412    -1.654052901048
H                     1.148575558521    -2.254544249881    -2.378167211352
H                    -0.001720233401    -3.598139692519    -2.132657010827
H                     6.840766138463    -3.021331463371    -0.154015370841
H                     6.232114633620    -1.365341011717    -0.505282938695
H                     7.174174753347    -1.681531401398     0.995751275622
H                    -1.093693473439    -0.463243979224     1.331813327918
H                    -0.508448783692    -2.065466528413     1.834935360890
H                     2.272725641108    -2.116461087202     0.908543040640
