25
0 1 C7H10N2O4S2
C                     0.794988051317     0.647360801928     3.555198840452
C                     0.701876013742     0.025167297715     2.362008102586
C                     2.882652658824    -0.624905304579     2.952590237725
C                    -0.122362244393     0.183465167428    -0.017430435848
C                    -0.735698560374     1.223756727944    -2.047327667157
C                     6.618133977996    -0.716089761246     2.836245823030
C                    -0.486085431971    -0.024902968407     1.444786502774
N                     4.010822053997    -1.228664502607     2.702654438226
N                     1.856214396756    -0.688600074090     2.050070016925
O                     0.816826390452    -0.363633380913    -0.570756235769
O                     4.978526519403    -0.197600686665     4.868996467819
O                     5.467654932006    -2.616837881099     4.277744023908
O                    -0.980092678536     1.010635850493    -0.634882088911
S                     2.351467188889     0.375668807472     4.334832021236
S                     5.223308450376    -1.237404049454     3.846687031561
H                     0.032795598878     1.241734502364     4.040556405045
H                    -1.521039261339     1.903460983865    -2.374834014063
H                    -0.791314571913     0.275461477188    -2.585552945571
H                     0.250433787005     1.668636564590    -2.193663136766
H                     7.500010165000    -0.754467063133     3.478241852855
H                     6.715364781722    -1.413087232073     2.003752088194
H                     6.435758434071     0.300093623282     2.485832151398
H                    -1.228325818609     0.708514642393     1.758936125834
H                    -0.955323332667    -1.016687573991     1.501445977688
H                     2.001222684628    -1.103608920840     1.132829943536
