25
0 1 C7H10N2O4S2
C                     0.902344565717    -0.134706011930     3.325066508501
C                     1.015638591299    -0.233850669706     1.984979727732
C                     3.293931113162    -0.349793417731     2.569002303878
C                     0.039028930704     0.918033542866    -0.033504511128
C                     1.409989973735     1.862298257187    -1.727437778429
C                     6.744414234582    -1.716872734251     3.073132980364
C                    -0.081287339965    -0.231593432564     0.959452915200
N                     4.556551160510    -0.438931905965     2.255712990668
N                     2.344420802738    -0.369064585923     1.583431111889
O                    -0.754944513271     1.824438448278    -0.153485548034
O                     6.512730476761     0.919168543314     3.182496002453
O                     5.119310692525    -0.479099657777     4.779474548362
O                     1.166997386706     0.793143672942    -0.779362316136
S                     2.462214707897    -0.203734596677     4.142379350396
S                     5.719197445811    -0.285320948224     3.442677344805
H                    -0.012156438804    -0.031705160442     3.893121866121
H                     2.346846032478     1.605142041027    -2.219908860594
H                     1.496531032673     2.815178706762    -1.201986266370
H                     0.592558844858     1.914505441429    -2.448930169116
H                     7.589284048515    -1.680536262487     3.763213348324
H                     6.153668869441    -2.619818847454     3.228923687829
H                     7.085121774858    -1.635969090098     2.040837271626
H                    -1.045067189047    -0.138566798899     1.458032353409
H                    -0.067476507988    -1.173238338684     0.396893697926
H                     2.629466113136    -0.313815447652     0.611120545164
