25
0 1 C7H10N2O4S2
C                     1.403964851974     0.988357103624     2.540154372283
C                     1.105694741609    -0.179966051915     1.936338636962
C                     3.250561908018    -0.709470765069     2.751261661655
C                    -0.877746615054    -1.730886701483     1.807545026755
C                    -0.701934286736    -4.041264989206     2.328891594772
C                     6.902452183033    -1.541420563942     2.802475183390
C                    -0.145837429185    -0.544991242977     1.191105171102
N                     4.242737972444    -1.538840671579     2.918755874566
N                     2.144631783094    -1.103693800865     2.047830311423
O                    -1.981857074179    -1.690362088435     2.303216011762
O                     5.553547510731     0.357761376578     4.090282674230
O                     5.576938773309    -1.992673440490     5.050475786637
O                    -0.122685222412    -2.856727055457     1.726926074650
S                     3.003944023171     0.978493012871     3.278990794763
S                     5.532675025841    -1.105700266219     3.884518825828
H                     0.779462050165     1.869761756691     2.592371785522
H                     0.035449777138    -4.829702636295     2.184022242377
H                    -1.641397411092    -4.291006988135     1.832381990888
H                    -0.883234399691    -3.869866406291     3.391576596025
H                     7.816921204083    -1.358157224703     3.369477996954
H                     6.812463867949    -2.596898171586     2.545309881258
H                     6.861875752953    -0.909465814568     1.915036608346
H                     0.099163665822    -0.796186161439     0.151745036562
H                    -0.829800413338     0.302535072304     1.191848638624
H                     2.041631243821    -2.076732780021     1.778998964300
