26
1 1 C7H11N2O4S2
C                     5.594331066063    -0.321291335194    -3.381702609658
C                     4.403669837598     0.239888105421    -3.697337299767
C                     5.672990623127     0.983461410076    -5.476656998375
C                     1.864893665026     0.262502011967    -3.765165901104
C                    -0.453274735667    -0.214225222664    -3.821890136726
C                     4.475821964916     2.099957574031    -8.931577127829
C                     3.125943881719     0.203039183737    -2.907852178140
N                     4.477593565549     0.970745562167    -4.886769630580
N                     5.967621650607     1.573245688859    -6.667795788105
O                     1.815489521884     0.801472551814    -4.862781694238
O                     3.889227031890     3.089331682169    -6.526181775157
O                     6.008339016454     3.914988585030    -7.715103111287
O                     0.835579531197    -0.293691081752    -3.142625198433
S                     6.826162445563     0.073812082143    -4.560606330143
S                     5.024216494705     2.893265170198    -7.418413769669
H                     5.841998960207    -0.933425090672    -2.525007457810
H                    -1.156180919852    -0.698045601545    -3.147301881408
H                    -0.397881269603    -0.740584157221    -4.775622074767
H                    -0.718649280287     0.831139639147    -3.984813274556
H                     3.898845557959     2.856078898043    -9.469098785764
H                     5.353131199130     1.806400696912    -9.508213633680
H                     3.849427560958     1.247691413182    -8.668906816342
H                     3.105604310031    -0.681067591045    -2.269756644742
H                     3.084547671472     1.074186017039    -2.240902352437
H                     3.630256145365     1.415660525597    -5.269304686989
H                     6.956262853600     1.630622743946    -6.909980644331
