26
1 1 C7H11N2O4S2
C                     5.483699992500    -1.188008272604    -3.945065641824
C                     4.596990348480    -0.177037421187    -3.796135129508
C                     5.408194130525     0.318048907671    -5.898927669902
C                     3.349232576475     1.543694650088    -2.405637361286
C                     2.623134163846     3.139711416416    -0.816656101225
C                     3.627295287744     2.071212572696    -8.724224573022
C                     3.675973108705     0.071256785936    -2.634554453648
N                     4.569845049852     0.660391113394    -4.918459296713
N                     5.560545889926     0.963033280581    -7.086548796459
O                     3.335362905285     2.378792608855    -3.299469148467
O                     4.226116643260     3.015344511163    -6.304462344835
O                     5.965784945302     3.232316406971    -8.179866670497
O                     3.036343485281     1.777388191205    -1.139452770956
S                     6.291178398732    -1.115714690926    -5.496165867678
S                     4.873080752783     2.545582968450    -7.522012813659
H                     5.716707529448    -1.983984308357    -3.250689085177
H                     2.402672868218     3.120679674453     0.248342753840
H                     1.738467138567     3.402242093913    -1.398220141217
H                     3.436588906991     3.831303675418    -1.038985032566
H                     3.158511093005     3.003394567890    -9.048187602242
H                     4.122164521651     1.580053638342    -9.562165986154
H                     2.900662612511     1.422235240225    -8.235664793082
H                     2.716605893754    -0.430873531900    -2.815472617076
H                     4.093204203401    -0.367391936137    -1.727542947108
H                     4.067871585433     1.565134111316    -4.866245492464
H                     6.386289101589     0.732003876839    -7.637408381865
