26
1 1 C7H11N2O4S2
C                     5.127562517903    -0.272831910960    -4.006499432909
C                     3.982321887081     0.196275097753    -4.554344988968
C                     5.524405901660     0.981702012269    -6.098274810699
C                     2.341516778749    -0.725449577868    -2.833796928485
C                     0.670145357541    -1.522848454721    -1.359098387539
C                     5.464047816717     3.965181032878    -8.569833819743
C                     2.552230804785     0.071692330531    -4.117746765085
N                     4.239207291511     0.907715513318    -5.738175788501
N                     6.011400899296     1.640837483394    -7.190807724430
O                     3.224620794468    -1.221264784833    -2.161711517329
O                     5.575115413853     1.564632879954    -9.731652085587
O                     3.656470668905     2.058077711688    -8.107565050617
O                     1.036496883656    -0.790366503314    -2.563522017682
S                     6.529267412764     0.163599849648    -4.959984181692
S                     5.038146275135     2.222566097499    -8.558928022483
H                     5.230560924592    -0.850790248566    -3.099652675110
H                    -0.415496023166    -1.466591212697    -1.313551665800
H                     1.124379576160    -1.050540902862    -0.486820115151
H                     1.006153423179    -2.557659014652    -1.439545081878
H                     4.896284660169     4.401452844382    -9.395102211279
H                     5.167395120621     4.401617577248    -7.616542485231
H                     6.534776803707     4.060019087761    -8.752757628301
H                     2.116737201287     1.066767264760    -3.969209436729
H                     1.958552078071    -0.401335082255    -4.908631068300
H                     3.513075593635     1.293072433662    -6.348357171118
H                     6.965491169685     1.406916549538    -7.464048932796
