26
1 1 C7H11N2O4S2
C                     4.937011492996    -1.154950778633    -4.341022124575
C                     4.051616145247    -0.154840675619    -4.129920645569
C                     5.102507866141     0.620803636144    -6.041138975752
C                     2.601029362818     1.393912215381    -2.722441660033
C                     1.555473404533     2.779373068533    -1.109980526671
C                     7.801547182626     2.290406822286    -8.086005407952
C                     3.001075681602    -0.038787964569    -3.059725238544
N                     4.165815042692     0.835190591239    -5.110727157704
N                     5.369479144784     1.536789363748    -7.012473633866
O                     2.722577155858     2.340104843991    -3.495736869489
O                     6.777179755028    -0.159457196437    -8.313340996010
O                     5.621813053691     1.782769478928    -9.538291611242
O                     2.062669197133     1.471983883022    -1.517879528339
S                     5.898057332144    -0.895076126224    -5.781647378851
S                     6.389901132935     1.238743529268    -8.435746262511
H                     5.071889439893    -2.059067744040    -3.762018011090
H                     1.147451707837     2.622192307787    -0.114121653447
H                     0.782114238719     3.105605500680    -1.806419276324
H                     2.374264143124     3.499474130622    -1.091358822962
H                     8.483290009083     2.161769123560    -8.929894243755
H                     7.458938837809     3.323413221309    -8.024500405489
H                     8.265648571809     1.952535412562    -7.159512771578
H                     2.082977743162    -0.541555284765    -3.390872488704
H                     3.326963095500    -0.554115596908    -2.155235335498
H                     3.637661160204     1.710606387059    -4.958991895045
H                     4.656252443919     2.244572720278    -7.188992482553
