26
1 1 C7H11N2O4S2
C                     5.012929954442    -0.493600780258    -4.657218176453
C                     4.203327801311     0.522751634055    -4.281902991652
C                     5.675752330196     1.656410972908    -5.662756716880
C                     2.635007926767     1.805187669284    -2.735830081593
C                     1.430761295817     2.824027147694    -0.968264398396
C                     7.334742412286     3.011300941093    -8.806485075168
C                     2.985537789839     0.476995485143    -3.398755509317
N                     4.598511441913     1.726071839754    -4.872880051742
N                     6.151038239567     2.746373789346    -6.326309690566
O                     2.955012398237     2.902385084331    -3.185377970335
O                     8.299536212529     4.109688766735    -6.575132207049
O                     8.361768061058     1.552808007715    -6.825471879887
O                     1.902740286839     1.622326779896    -1.651033579929
S                     6.292157863415     0.040021873530    -5.726677921320
S                     7.763417773803     2.856988537792    -7.070703786118
H                     4.960358786239    -1.532865059638    -4.360659732110
H                     0.845671681452     2.456225374391    -0.128441844948
H                     0.816454003157     3.414624427885    -1.648947108272
H                     2.285202666050     3.409487625324    -0.627033009724
H                     8.284581114212     3.096107473554    -9.339461804670
H                     6.797795779475     2.113637498149    -9.112510383391
H                     6.739707420256     3.914931185178    -8.939621224693
H                     2.108813719784     0.194188202754    -3.995759813169
H                     3.103000313646    -0.294911623696    -2.636966618003
H                     4.102749644805     2.583012857917    -4.575367977148
H                     5.806167783885     3.655824416528    -6.018248690532
