26
1 1 C7H11N2O4S2
C                     4.232012656364    -0.883837878674    -4.787121391894
C                     3.586158199701     0.219928160172    -4.349813827127
C                     4.829859685508     1.119245419485    -6.092174789196
C                     2.829623551246     1.483133429888    -2.265742967893
C                     3.135254495444     3.839325822012    -2.053747158234
C                     7.890688491375     2.488671742769    -7.817869092761
C                     2.572917643726     0.343130118838    -3.249877348503
N                     3.944029560471     1.341435156052    -5.110252152364
N                     5.316763532369     2.128295399962    -6.863961922978
O                     2.870524859091     1.358348040713    -1.068707493003
O                     6.321513387082     0.456574441331    -8.532045206336
O                     5.687309528727     2.831423859742    -9.286445990023
O                     2.965796701700     2.673674561585    -2.918754541039
S                     5.258812251216    -0.555198431067    -6.167154860695
S                     6.280638167673     1.899509697010    -8.348313640517
H                     4.147863436084    -1.894374026889    -4.409699272153
H                     3.193667107998     4.692672795563    -2.727298321470
H                     4.048962035780     3.734164530477    -1.467552140302
H                     2.275290621258     3.926986609344    -1.389540523690
H                     8.545419244859     2.380947524293    -8.685867438078
H                     7.801209646942     3.537066091194    -7.533297268963
H                     8.235820736314     1.863180284470    -6.994662116341
H                     1.579534028656     0.503257650507    -3.687667305923
H                     2.541735744293    -0.584692159946    -2.680448273304
H                     3.631475761249     2.267073515196    -4.807105790422
H                     4.776269496625     2.992845113273    -6.894695000760
