26
1 1 C7H11N2O4S2
C                     4.534463589492    -1.205099558778    -5.778688092887
C                     4.014621858584    -0.419738394529    -4.807991553696
C                     5.529601559310     1.049294505319    -5.760267307181
C                     2.945809958917     0.106833846069    -2.554625426915
C                     2.190742798244     0.252085772421    -0.313698568281
C                     7.049631653249     3.572971606330    -8.162091682075
C                     2.925050373985    -0.742617822284    -3.821231961986
N                     4.591860456974     0.852995277085    -4.826854017161
N                     6.151975899250     2.251016701677    -5.910723056387
O                     3.445091271320     1.226862738874    -2.486829221807
O                     8.499411789689     3.262174426734    -5.944426374101
O                     7.967310610342     1.196336325960    -7.377443721705
O                     2.314062578216    -0.495400617787    -1.562315882829
S                     5.767425656646    -0.379770560576    -6.707995348759
S                     7.644467552937     2.511359670624    -6.843038351320
H                     4.290522690443    -2.234441437368    -6.006163420771
H                     1.635163989306    -0.405214406302     0.351288078763
H                     1.648162788269     1.180701467764    -0.494833932496
H                     3.183624763902     0.466559438493     0.083092067091
H                     7.921513275567     3.789715971813    -8.783614935724
H                     6.294316350798     3.030457992220    -8.730392027576
H                     6.656831622599     4.489471112088    -7.721547732990
H                     1.945551564574    -0.571351808844    -4.286249716761
H                     2.960303646458    -1.800045389739    -3.555503217892
H                     4.331603505781     1.500427846026    -4.064099303352
H                     6.055742150058     2.916227942112    -5.143171335288
