26
1 1 C7H11N2O4S2
C                     5.533158079966     0.606066198996    -2.960985216122
C                     4.347376696192     0.509963812754    -3.603940358474
C                     5.572477973468     1.692978017767    -5.171892232602
C                     2.138330933548    -0.587529105431    -4.237083872701
C                     0.289724798014    -1.977371403009    -4.750172376341
C                     8.027922758556     2.200591489940    -7.993621116044
C                     3.064186911528    -0.110210943900    -3.122953199671
N                     4.398279797284     1.137844024609    -4.852258751399
N                     5.782663748353     2.274557372148    -6.384745036573
O                     2.153016029777    -0.139655776805    -5.380410247298
O                     6.634886257374     4.416321760900    -7.476090619522
O                     7.974076564322     3.320078875705    -5.575477461025
O                     1.290554465616    -1.502036497121    -3.798959893334
S                     6.715549104728     1.509485243164    -3.884233943277
S                     7.198754203975     3.260907655868    -6.806417356845
H                     5.790573571791     0.233785718496    -1.978129163608
H                    -0.304693967154    -2.698159469412    -4.193335131079
H                     0.786722128658    -2.448348703905    -5.598998800652
H                    -0.321124009360    -1.139496629163    -5.088393344655
H                     8.919954295449     2.747610857495    -8.307478702077
H                     8.300468358186     1.269427091938    -7.497038295201
H                     7.360714789626     2.038111548607    -8.840211036376
H                     3.277364664946    -0.934807920683    -2.441401813653
H                     2.492299972230     0.629284785758    -2.547272747702
H                     3.592244616058     0.995775908821    -5.483454570693
H                     4.955818847946     2.533236777282    -6.923422343452
