26
1 1 C7H11N2O4S2
C                     5.450746402474     0.312791606168    -3.803817083948
C                     4.266657517923     0.884298204638    -4.116690500913
C                     5.637387691520     1.790795366805    -5.773170224525
C                     2.829548397498    -0.165958561812    -2.290099507912
C                     1.337949968484    -1.037838564848    -0.671281940230
C                     7.621144480135     1.888481628064    -8.971169727514
C                     2.909090966115     0.780408420105    -3.486134610328
N                     4.403892102610     1.718753668187    -5.242592371738
N                     5.901271866736     2.515249011996    -6.893811142524
O                     3.757862779338    -0.803919149730    -1.835235272074
O                     7.440147569846     4.306268982776    -7.851742297528
O                     8.435163564317     2.372390649420    -6.480234233431
O                     1.579203314066    -0.179929184139    -1.823727456361
S                     6.742992303667     0.822732579634    -4.868127161956
S                     7.538858048305     2.904948937333    -7.494363838870
H                     5.645589329732    -0.365314031859    -2.985515289224
H                     0.280665882138    -0.916124075694    -0.445011644106
H                     1.958023403578    -0.714322351697     0.165989174714
H                     1.567854219765    -2.073196315181    -0.926917348711
H                     8.604741528914     2.079409252517    -9.406779342532
H                     7.525518834934     0.842780019043    -8.678874218361
H                     6.831772692391     2.202267240705    -9.654173239299
H                     2.572883453586     1.768288856773    -3.149395962634
H                     2.171700377485     0.443937753042    -4.224549236237
H                     3.610267656297     2.209333211705    -5.647700302293
H                     5.225551383859     3.229855844069    -7.163986393383
