18
0 1 C7H7NO3
C                     0.736614470874    -0.278570620847     2.669080885347
C                     0.192435620750     0.371796595567     3.733941281195
C                    -0.054762940834     0.171934761140     1.563981838524
C                     0.846143765734    -1.363087626984    -0.258492891335
C                    -1.066866538405     0.342644244199    -0.797035951247
C                     0.216411571228     1.106099689178    -0.818401840968
C                     0.079255071929    -0.120673491745     0.106784336249
N                    -0.988033845141     1.020367075432     1.957402980341
O                     1.377825799688    -2.095286532084     0.545793390960
O                    -0.834105889084     1.154326672322     3.337687908861
O                     0.950994504330    -1.662659301616    -1.587596350383
H                     1.549625578305    -0.985704978571     2.652010697469
H                     0.408873021117     0.378292759130     4.794173355573
H                    -1.907376085583     0.784534462443    -0.275030377682
H                    -1.342891615781    -0.288556766324    -1.637346268497
H                     0.888444609715     1.030308135010    -1.668829327973
H                     0.241129364653     2.060169718539    -0.304013969146
H                     0.470035524214    -1.024671879123    -2.139015260225
