26
1 1 C7H11N2O4S2
C                     4.831993243353    -0.021556711023    -4.067625724409
C                     3.836683772493     0.816778473455    -3.702609275355
C                     4.824146503130     2.047666716288    -5.405930474462
C                     2.584107069387     1.793434167175    -1.705007718629
C                     2.094141128012     4.123244688757    -1.556337154035
C                     7.372226415415     4.320560783919    -7.005598240746
C                     2.773585960098     0.618082421714    -2.662418893521
N                     3.856002937058     1.982453287559    -4.480380741918
N                     5.001997798866     3.148914967008    -6.184843021720
O                     2.587719370613     1.705725298802    -0.504005261487
O                     6.602766550088     1.875528597638    -7.734671719405
O                     5.276888696019     3.898982704817    -8.605859690943
O                     2.367360179728     2.954041813148    -2.389456836718
S                     5.778301073842     0.604420600749    -5.401574229455
S                     6.080742375944     3.227552002289    -7.604049442095
H                     5.058582612168    -0.998332009377    -3.661079712450
H                     1.910528986906     4.938489908287    -2.254153891728
H                     2.955245463756     4.332562306094    -0.920525120844
H                     1.214724974734     3.933381779436    -0.940754930596
H                     8.078715039356     4.423801670189    -7.832581155861
H                     6.926342068128     5.284428926218    -6.760113038552
H                     7.851473750677     3.853800046414    -6.145084106929
H                     1.810787819410     0.437791513201    -3.157049082207
H                     3.011668348831    -0.260418186197    -2.064384472144
H                     3.241978907666     2.759749235481    -4.225017960243
H                     4.211255907822     3.786818276784    -6.276229830461
