26
1 1 C7H11N2O4S2
C                     4.451845755142    -0.974446315364    -4.378062005147
C                     3.739008401701     0.157435284400    -4.170463091889
C                     5.504691769809     1.021001871122    -5.381276970776
C                     2.208025519565     1.645976381496    -2.794209266023
C                     0.980175394226     2.793735615377    -1.127008269245
C                     6.790404644954     4.625770836439    -5.471862430592
C                     2.410110734378     0.299862330507    -3.483950796523
N                     4.358555014423     1.269720557744    -4.747657435189
N                     6.311923087326     1.950780406926    -5.962596578523
O                     2.754674293736     2.680891723806    -3.151877697916
O                     6.222453672831     3.645365816346    -7.888344548546
O                     4.385957599010     3.657103130924    -6.096046837056
O                     1.331638720606     1.550275381460    -1.804724708018
S                     5.897102791708    -0.663596186297    -5.314835200030
S                     5.779885790251     3.567499099038    -6.510386147633
H                     4.222174294207    -1.981145648337    -4.055903628968
H                     0.242052360836     2.507599231530    -0.381006184071
H                     0.561318683014     3.498408695809    -1.846538534336
H                     1.868441179086     3.219126495659    -0.658228805351
H                     6.535057156501     5.649238641612    -5.756227578938
H                     6.533175582260     4.436654458576    -4.429857965779
H                     7.840075231225     4.420500350534    -5.682644344772
H                     1.605598736835     0.211674704927    -4.225817716345
H                     2.268438395517    -0.512778437545    -2.770627166268
H                     3.944993044002     2.206366141543    -4.628629054848
H                     7.071942166626     1.589221935148    -6.537968022751
