26
1 1 C7H11N2O4S2
C                     4.987349924962    -0.112064053699    -3.540212451886
C                     3.843099575205     0.381723462613    -4.066841695454
C                     5.324975378409     0.953202120526    -5.740883053819
C                     1.336157825192     0.320702106954    -4.464924332861
C                    -0.931185279334    -0.267068917131    -4.800502891816
C                     5.127233110381     3.851382981879    -8.156810705184
C                     2.472886492411     0.378891438476    -3.449122548603
N                     4.061380205632     0.984079240345    -5.312302875406
N                     5.790514954832     1.475690441293    -6.907248031424
O                     1.419710525169     0.776763050595    -5.596946947769
O                     5.432777793403     1.530275927841    -9.433992613972
O                     3.427567970163     1.819660597203    -7.857445044531
O                     0.250614421645    -0.232779646783    -3.944327937041
S                     6.358572921295     0.177830811287    -4.588457186038
S                     4.802805648782     2.088685829564    -8.255073430929
H                     5.126141237875    -0.623186060739    -2.597068148598
H                    -1.700778312107    -0.743044804791    -4.196886894432
H                    -0.716718587818    -0.849317394927    -5.697395889784
H                    -1.216174787996     0.749897152243    -5.073142229897
H                     4.552933932644     4.303577804445    -8.968826430282
H                     4.782445206345     4.215787157025    -7.189271787576
H                     6.194504961487     4.017128010103    -8.304304633666
H                     2.386065387601    -0.443408152489    -2.738227058562
H                     2.327377782817     1.305972445823    -2.879359340329
H                     3.249891080652     1.245128872540    -5.900880889446
H                     6.719016289688     1.181955141494    -7.207790640403
