26
1 1 C7H11N2O4S2
C                     5.120199376857     0.133769685773    -3.448513179877
C                     3.958163190546     0.542708589453    -4.009074388049
C                     5.435845751199     1.036851723434    -5.726938694557
C                     2.396935057932     0.004092280832    -2.066113553388
C                     0.802843104914    -0.400147497467    -0.363392605282
C                     4.959274316922     1.329684696713    -9.552946962421
C                     2.552775825561     0.547862405061    -3.483318006415
N                     4.167944097239     1.046818495733    -5.303533456507
N                     5.871957735310     1.451293234005    -6.952856735691
O                     3.297964755866    -0.436336651588    -1.379368663472
O                     3.577643203912     2.420910759696    -7.548839203641
O                     5.700812940494     3.601039340212    -8.363494850965
O                     1.116368468203     0.085300921561    -1.700314816371
S                     6.479956764652     0.374883561409    -4.524333158557
S                     4.925825480528     2.403339911967    -8.116116824222
H                     5.258128294963    -0.293483919457    -2.465943835576
H                    -0.270003315891    -0.255190672079    -0.254592812958
H                     1.353991425281     0.179473610187     0.378577244799
H                     1.066401502764    -1.455689447768    -0.282080531575
H                     4.388302880657     1.852199349338   -10.324128140671
H                     5.995559069310     1.202306640836    -9.867230297979
H                     4.487799155523     0.382942940911    -9.290844966091
H                     2.150328174680     1.567404763102    -3.498722259766
H                     1.903600178639    -0.041777143755    -4.141191755024
H                     3.437507098245     1.469456659667    -5.883158591199
H                     6.874646460662     1.614648900121    -7.039627282910
