26
1 1 C7H11N2O4S2
C                     5.557078773759    -0.158964352534    -3.489124657364
C                     4.302633921638     0.045141546625    -3.953022990668
C                     5.507067976572     1.169945327112    -5.568300886696
C                     1.896470156029    -0.670848787516    -4.336337588609
C                    -0.135088088459    -1.824637784041    -4.711620191970
C                     4.425686445952     4.130337642503    -7.642733005292
C                     3.010092818938    -0.401163845801    -3.329134388972
N                     4.300606548492     0.804211435470    -5.130076099070
N                     5.767152516537     1.913411886140    -6.677064723833
O                     1.811021932700    -0.101900236974    -5.415894611459
O                     5.313167238754     2.138292049606    -9.177820339335
O                     3.366960150619     1.685175305087    -7.566128433842
O                     1.022906078272    -1.549463665954    -3.866538320853
S                     6.755728942948     0.604647702441    -4.510538492944
S                     4.598145118989     2.368348793884    -7.939190768379
H                     5.865875340700    -0.701754810993    -2.605918515736
H                    -0.724111807296    -2.548454109366    -4.152751625900
H                     0.197208381140    -2.237852339040    -5.664657875969
H                    -0.695372563409    -0.903571976382    -4.877433801561
H                     3.718650954406     4.489079732623    -8.394448505683
H                     4.030027651840     4.277646417171    -6.637949330865
H                     5.399164091849     4.602223450709    -7.776713700478
H                     3.179837940032    -1.282607361642    -2.709961200732
H                     2.635676166457     0.386133413816    -2.661874454840
H                     3.427914898743     0.884954278544    -5.682381200820
H                     6.728596540369     1.921601967121    -7.015037169361
