26
1 1 C7H11N2O4S2
C                     4.644478483819    -0.195196470552    -3.932429249873
C                     3.660325682551     0.697459998168    -4.187622514920
C                     5.274617970149     1.463910686703    -5.647611109475
C                     1.693201399343     2.144546929528    -3.491106859943
C                     0.113465706544     3.507380662578    -2.374942087924
C                     4.789586399885     3.267451932223    -8.928234378890
C                     2.283057884356     0.740891461010    -3.587245378405
N                     4.040314100092     1.624766943017    -5.166054566576
N                     5.868692092783     2.225758724154    -6.605042054428
O                     1.978802250561     3.050449624600    -4.261969097797
O                     4.053439509995     4.040934279908    -6.485747672579
O                     6.417386914764     4.617903257217    -7.303830414397
O                     0.806590430997     2.229800584981    -2.510081601825
S                     6.058486060897     0.102450163223    -4.919904363257
S                     5.251526084287     3.759006638213    -7.264757112184
H                     4.636942317701    -1.020788729125    -3.233593449167
H                    -0.565634530634     3.370410259030    -1.536351861197
H                    -0.432580985672     3.727412917199    -3.293190598448
H                     0.837722693608     4.296965618779    -2.171346469058
H                     4.404178181102     4.170564847375    -9.407315832972
H                     5.680404205344     2.910324419983    -9.445142552430
H                     4.015273333940     2.503206700841    -8.863511777900
H                     1.593054321176     0.160772826235    -4.213844293480
H                     2.289301011252     0.266572929915    -2.605345845450
H                     3.452635877815     2.462053377641    -5.329596730616
H                     6.878688702497     2.136196830650    -6.707935948617
