26
1 1 C7H11N2O4S2
C                     4.132186921059    -0.515426371514    -4.661368851990
C                     3.622907953575     0.707854610242    -4.387094684417
C                     5.436631097806     1.311445773339    -5.686949778184
C                     1.457914468602     2.032019988648    -4.243404317680
C                     1.307005198651     4.190138794891    -5.260117408596
C                     7.412559868487     4.585660151098    -5.770815401813
C                     2.418107464590     1.054300442355    -3.561603308188
N                     4.387640371957     1.724378869563    -4.973413677986
N                     6.319493470043     2.115503525164    -6.344285956832
O                     0.282048288807     1.830139591875    -4.413463219692
O                     6.334894992839     3.955684852581    -8.131152913112
O                     4.797838653897     4.171993324212    -6.091641971247
O                     2.113204107306     3.164189333812    -4.605229579441
S                     5.571482644052    -0.412061567817    -5.654552866708
S                     6.078774508775     3.839570465928    -6.710619242208
H                     3.763328465535    -1.481575722684    -4.344316422048
H                     2.010201980501     4.978254659903    -5.521201209764
H                     0.546723959669     4.550189148661    -4.566268187624
H                     0.833606171169     3.773433432462    -6.149768637603
H                     7.335837258768     5.660670483353    -5.950171931542
H                     7.266181831864     4.354814107259    -4.715860139702
H                     8.360177269694     4.201940298664    -6.149477389050
H                     1.863304159563     0.146958501689    -3.327295297077
H                     2.742996628014     1.508937777589    -2.617759374418
H                     4.052823097921     2.696500927490    -4.987663727047
H                     6.929458715520     1.660842604502    -7.023101142122
