26
1 1 C7H11N2O4S2
C                     4.592528818374    -0.452147180742    -4.081980968608
C                     3.764285127971     0.601128255940    -3.905010911680
C                     5.419423958865     1.577972908258    -5.207935254436
C                     2.305246485887     1.822382795902    -2.203858508328
C                     2.357805594142     4.197730619869    -1.991047945685
C                     8.759588173651     3.160669104129    -5.944938903397
C                     2.452924525704     0.654470001414    -3.177596207781
N                     4.258434532703     1.739286611812    -4.556579259819
N                     6.048006928639     2.614114142494    -5.826173979223
O                     1.976784767737     1.714668912256    -1.050331348686
O                     7.636937101932     1.009444942472    -7.046357797892
O                     7.105413202004     3.322992117960    -8.034549491303
O                     2.553579915624     3.012639029172    -2.823583384977
S                     5.970721221450    -0.057551138514    -5.087791574914
S                     7.440280446244     2.446535467609    -6.929867134491
H                     4.468791163034    -1.462007119857    -3.713770527621
H                     2.560721506048     5.045511437638    -2.643258593247
H                     3.047782926007     4.173565657875    -1.146717082866
H                     1.329375614888     4.222558905496    -1.630375993904
H                     9.657405464286     3.099055863760    -6.564467836309
H                     8.511383175222     4.200525225885    -5.732358368796
H                     8.875899678815     2.567963010420    -5.037629263708
H                     1.636139892626     0.728506703407    -3.906664955596
H                     2.314208774004    -0.266387014085    -2.612904967276
H                     3.801092625663     2.640301101193    -4.397051270055
H                     5.482741192187     3.432089164999    -6.054088148476
