26
1 1 C7H11N2O4S2
C                     4.798137723689    -0.306995888020    -4.014589763986
C                     3.620458154137     0.228696790597    -4.405472575018
C                     5.062061560737     1.210698602924    -5.938077798063
C                     1.151403597954    -0.276234546884    -4.808233525267
C                     0.027609080119     0.476872948868    -6.772950041583
C                     7.217845203201     1.422474962793    -9.025812026527
C                     2.257822037025     0.044385527019    -3.804729819385
N                     3.801272990423     1.087207078487    -5.498337161150
N                     5.372672009570     1.957129422182    -7.032366648781
O                     0.390923933393    -1.205288141660    -4.715285754882
O                     6.929150131122     3.802940951699    -7.851506120447
O                     7.876255537502     1.846201464328    -6.478434845702
O                     1.108717714051     0.654171407881    -5.805720946649
S                     6.146758005574     0.274346453180    -4.968539580160
S                     7.030448518979     2.393685301305    -7.528375317642
H                     4.976226466532    -0.989177000211    -3.193844345322
H                     0.119032116331     1.312638025470    -7.464633879993
H                    -0.931336131882     0.504284291338    -6.255224373921
H                     0.145610787877    -0.477606330273    -7.287348999667
H                     8.220716489399     1.644245892641    -9.398307194222
H                     7.126400555391     0.367085812412    -8.769264200115
H                     6.463024977781     1.741752397693    -9.744441319791
H                     2.289200832714    -0.765427265101    -3.077195061052
H                     1.967157166280     0.960918995370    -3.275926858714
H                     2.978330327436     1.458291099898    -5.979456958221
H                     4.694650076794     2.662058052873    -7.322045297251
