26
1 1 C7H11N2O4S2
C                     7.419628379537    -0.671445196691    -3.633318652636
C                     6.256355082743    -0.094547309048    -3.256024366234
C                     6.244092813789     0.392944623031    -5.519196649447
C                     4.135650713993     0.119041413975    -1.867208974076
C                     2.188908617114    -0.139548359123    -0.542129484373
C                     5.696548317229    -0.235058331478    -9.204798380922
C                     5.656731431075     0.005359289827    -1.880546943880
N                     5.614169803272     0.504333578904    -4.344384754701
N                     5.697299240858     0.868308305577    -6.671728008706
O                     3.475093073823     0.571673194039    -2.798147752082
O                     6.222476644414     2.330206975856    -8.695282712472
O                     7.902887692989     0.543111584358    -7.927314544784
O                     3.632241089082    -0.281666577410    -0.712650268130
S                     7.747645678790    -0.446995122002    -5.338960108601
S                     6.552464123340     0.999947857281    -8.223234092313
H                     8.136846833440    -1.192937833494    -3.013253197534
H                     1.989208377531    -0.504384596879     0.462841508204
H                     1.671517193654    -0.741605490404    -1.289933846583
H                     1.909613372745     0.909815145612    -0.643884546871
H                     6.167643608767    -0.209352765287   -10.190129199455
H                     5.834807875839    -1.208977131248    -8.735476515678
H                     4.645339359889     0.044624582824    -9.275856651319
H                     5.970912900019    -0.842583683715    -1.270755813580
H                     6.033973122554     0.906914032098    -1.380116565499
H                     4.647657717000     0.837893903603    -4.194948788190
H                     4.951743103902     1.558507659033    -6.579561266841
