18
0 1 C7H7NO3
C                    -0.961900370383    -0.594353178944     2.508736242852
C                    -0.946303184313     0.177486301047     3.628558486664
C                    -0.266376404082     0.200196501971     1.540277165452
C                     0.326880489018    -1.451241914399    -0.347252758566
C                    -0.905187660241     0.705733662690    -0.912427307202
C                     0.538602079046     1.042439432604    -0.777661101364
C                    -0.039453770044    -0.075741726842     0.096715840215
N                     0.122908947953     1.350425358268     2.057237193066
O                     0.478651889189    -1.782149627203    -1.509875479606
O                    -0.310129712504     1.343663955212     3.387719105830
O                     0.492712312888    -2.331122648226     0.676505956486
H                    -1.378485048657    -1.581801007951     2.381935736275
H                    -1.325082241424     0.043910257091     4.633478477141
H                    -1.634918414038     1.374193691359    -0.467634197408
H                    -1.225080501779     0.150366350008    -1.787477933704
H                     1.208129193561     0.714918422199    -1.564919725753
H                     0.816714458888     1.945209186918    -0.247054381961
H                     0.746712510871    -3.176574435381     0.258277648504
