28
1 1 C8H15N2O3
C                     2.560268408645    -1.100774420154     1.589751472199
C                     4.008214236952    -3.876629973682     2.389805437497
C                     4.548743277769    -3.378888095995     3.710321863863
C                    -0.003676247000     1.177121700353     0.097593475327
C                    -1.659807909593    -0.533049771832     0.236788058318
C                     4.382521270374    -2.424621519634     2.552795929003
C                    -1.163995300889     0.573642193647    -0.703895237559
C                     1.554426263376     0.052053384178     1.809752214317
N                     3.322521372497    -1.439371257748     2.640352436674
N                     0.577800092453    -0.064294533670     0.692491892011
O                     2.604744202712    -1.603565214650     0.464059007380
O                    -0.544647039661    -0.829303801693     1.146618184937
O                    -0.672099926487    -0.059199514942    -1.875133852606
H                     4.646341330479    -4.480539939590     1.753859427221
H                     2.950984936322    -4.112712125476     2.333327258696
H                     3.849477525870    -3.296223895138     4.537670906107
H                     5.562286798281    -3.638371993367     3.997309042955
H                     0.749048987010     1.668030947731    -0.520463651717
H                    -0.330707689109     1.823397493203     0.914743097803
H                    -2.493254708461    -0.222165489668     0.867392305117
H                    -1.899740211895    -1.436816199671    -0.323554038738
H                     5.271935512659    -2.064633196017     2.043529476561
H                    -1.942047104371     1.312857729264    -0.913244441483
H                     2.064698173686     1.013392853177     1.715974265432
H                     1.002129152203     0.011012288881     2.748718531232
H                     3.220256982226    -0.923532588394     3.508044525973
H                     1.080810278529    -0.646866322867    -0.026144428727
H                    -0.652129371234     0.566574576906    -2.617483556672
