28
1 1 C8H15N2O3
C                     2.006878334860    -1.878058609758     0.942091214180
C                     2.485566959531    -4.933835011537     1.844520405916
C                     3.375000680829    -4.601532636320     3.019913347823
C                     1.798611303623     0.659626118943    -1.027285818748
C                    -0.256047780407     1.844328875517    -0.964006977233
C                     3.382002589635    -3.722004477393     1.792697780044
C                     0.778477108498     1.321223274825    -1.961200435382
C                     1.425285475877    -0.480722496113     1.236737508423
N                     2.784257559399    -2.405980834338     1.903461862300
N                     0.862814599446     0.005746044283    -0.054242172249
O                     1.701348362965    -2.419044378133    -0.123298337712
O                    -0.167866626664     0.958672701612     0.208936948419
O                     0.131008169208     0.337966608704    -2.753981383805
H                     2.749253799273    -5.768924064252     1.204648911465
H                     1.420222430036    -4.759924905955     1.952080272535
H                     2.896720602132    -4.215037387002     3.915517084894
H                     4.257201740306    -5.206156806250     3.201875927145
H                     2.407717832074    -0.111825458278    -1.497900178162
H                     2.411013235527     1.378764189636    -0.479782201127
H                    -0.040034801330     2.854972753627    -0.614861282991
H                    -1.266849252783     1.767991988358    -1.363674881394
H                     4.247848654818    -3.754625728255     1.137420624631
H                     1.223391675045     2.126744815483    -2.552480444134
H                     2.149428150080     0.246672691730     1.605355325902
H                     0.588075396233    -0.546175552158     1.935415011058
H                     3.021434621176    -1.840991545353     2.712145189165
H                     0.456888058205    -0.824445087048    -0.531345085657
H                     0.652776523212     0.143729367098    -3.550088454418
