28
1 1 C8H15N2O3
C                     2.782691327150    -1.228657872017     0.363357092200
C                     6.358710819584    -1.952510895782    -0.340485629813
C                     5.300536059199    -2.827680190274    -0.972318223920
C                    -0.377095675611    -1.012597150572     0.390274093195
C                    -0.028570700946    -1.334606346403    -1.916098942180
C                     5.041991377291    -2.172135683950     0.362243851518
C                    -1.159204379137    -1.278549487913    -0.897650546896
C                     1.971732178438     0.063227252029     0.593653611964
N                     4.119382166087    -1.057712381214     0.423890043752
N                     0.651219588607    -0.009804923449    -0.112203015635
O                     2.212906999413    -2.301189776347     0.175442184734
O                     0.881185806539    -0.261350331853    -1.509070320605
O                    -1.983472048941    -0.161581324345    -1.206034466739
H                     7.237249089037    -2.417390154297     0.094223902396
H                     6.536529465087    -0.979624065657    -0.790367836841
H                     4.766680313433    -2.431203706244    -1.829539907092
H                     5.440692331810    -3.903272532793    -0.975470559023
H                    -0.965497219634    -0.526849905173     1.169327576219
H                     0.159703480803    -1.885219234685     0.752442330581
H                     0.515229517592    -2.280333653617    -1.880843166699
H                    -0.358015450433    -1.079909571291    -2.922547804996
H                     5.023690481974    -2.804945488445     1.244992143732
H                    -1.706949306857    -2.223305723194    -0.846195720352
H                     2.478447202959     0.950441022010     0.209656507714
H                     1.755894314683     0.203693516650     1.657070608177
H                     4.497884130136    -0.138220674669     0.623100513951
H                     0.211664200760     0.919288618915    -0.096429184920
H                    -2.896225350472    -0.327408274493    -0.921868442486
