28
1 1 C8H15N2O3
C                     2.512384808592    -1.521901396851     1.683105613640
C                     3.529890749848    -3.950580758464     3.540536874558
C                     4.664057225681    -3.181984748474     4.178002300776
C                     1.607910082348     0.123998036987    -0.979583308429
C                    -0.493011758397     1.195656306785    -0.805321511672
C                     4.247708576318    -2.879200745919     2.758712730786
C                     0.350299279394     0.387193816153    -1.799120133970
C                     1.884030178784    -0.118498890915     1.555215642313
N                     3.567959149830    -1.623268778833     2.508884565932
N                     0.998199021852    -0.183009445306     0.358374603005
O                     1.991078865509    -2.444980363957     1.053502046238
O                    -0.100134684836     0.719505938815     0.526408275040
O                    -0.200446199530    -0.893176734587    -2.059236794992
H                     3.696548746347    -4.977777352642     3.234941845617
H                     2.520970057947    -3.731391626018     3.873416439235
H                     4.407985500006    -2.456793223873     4.945320226091
H                     5.620638137406    -3.673703451773     4.319944012004
H                     2.170402866715    -0.745656807628    -1.318096848239
H                     2.239941927550     1.006526461362    -0.875603532019
H                    -0.281623179587     2.266876079179    -0.845653546549
H                    -1.562411769740     1.008837028984    -0.909664901618
H                     4.902358365689    -3.189286753677     1.949157499798
H                     0.569150219977     0.953668166896    -2.709970725922
H                     2.599372874104     0.695145789807     1.431033573368
H                     1.237177132974     0.091521082166     2.409868593470
H                     3.953989358214    -0.781003093579     2.922199288885
H                     0.639331839532    -1.160869144183     0.324902043597
H                    -0.947065167746    -0.826974480030    -2.676948946120
