28
1 1 C8H15N2O3
C                     3.218194117164     1.148428965850    -1.073487508413
C                     6.430358895026     1.753914900868    -2.843354779094
C                     5.998823246016     0.328044827051    -2.587335262043
C                     0.643976528453    -0.092056286705     0.186060596434
C                     0.393392465704    -1.277087561784    -1.888878558598
C                     5.583808207892     1.426146119109    -1.638635582312
C                     0.774959249529    -1.506104552219    -0.422342168660
C                     1.850037099505     1.856240083017    -1.049701119796
N                     4.204788663794     1.868676657653    -1.645601411817
N                     0.734471133834     0.853537297427    -1.008177372548
O                     3.349727362459     0.036466363602    -0.569143102543
O                     0.818701619858     0.071955273396    -2.214593645937
O                    -0.151711248597    -2.391354868370     0.168555043881
H                     7.463206101669     2.032648206665    -2.663338889269
H                     5.956309884467     2.279240368208    -3.667842644828
H                     5.229559927688    -0.087181156984    -3.229899776361
H                     6.731166314864    -0.386161031574    -2.226533153835
H                    -0.347116347265     0.030631258795     0.624813582293
H                     1.431340363855     0.153652207105     0.891271294454
H                     0.924135495866    -1.917980262416    -2.592112097097
H                    -0.689328258974    -1.374175080196    -2.017512822963
H                     6.046680387208     1.451867428321    -0.656222117742
H                     1.807281210748    -1.844622463033    -0.334518183076
H                     1.674079639045     2.469586818497    -1.935691072225
H                     1.747080032140     2.477070733658    -0.154857995589
H                     4.006153790230     2.799179404221    -1.996837657672
H                    -0.147152524513     1.374609518811    -1.081253549111
H                     0.313203771714    -3.056761036523     0.698278084969
