28
1 1 C8H15N2O3
C                     2.903493779381     0.288735972186     0.847910762525
C                     5.119970555340    -0.527118071016     3.075221981488
C                     6.018826869552     0.660907733229     2.819571290368
C                     0.059644314846    -0.556279339021    -0.137951434596
C                     1.100066862597    -0.922155690459    -2.271539739104
C                     5.190380721240     0.083940348743     1.697884347777
C                     0.512510181741    -1.691140894412    -1.083457365815
C                     1.812157970336     1.287664083816     0.419792968575
N                     4.065770429108     0.862661582564     1.222274835958
N                     0.876932867507     0.657151876809    -0.571022459532
O                     2.661215713881    -0.914749299760     0.879037304730
O                     1.660321460201     0.301046623813    -1.726118216845
O                    -0.594323645564    -2.449797781612    -1.519617732598
H                     5.567409773441    -1.506671136967     3.204470255462
H                     4.213763953796    -0.358879443356     3.647581026235
H                     5.712939269115     1.617572715337     3.233613213936
H                     7.092060362320     0.509521277728     2.772916185794
H                    -0.990641598685    -0.323186403454    -0.317959656643
H                     0.255854302635    -0.757912662954     0.910165111668
H                     1.936439725684    -1.423881505236    -2.757084193212
H                     0.314526428985    -0.688323547247    -2.997112699930
H                     5.695014020824    -0.477650622405     0.916692396143
H                     1.276134772924    -2.291953342684    -0.589328895334
H                     2.213086961999     2.178706657295    -0.067238510538
H                     1.205267546083     1.589055964008     1.278413499953
H                     4.215812038938     1.849339014220     1.042939124061
H                     0.232696005033     1.389030089936    -0.892530461043
H                    -0.557677472837    -3.341637830440    -1.141672171928
