28
1 1 C8H15N2O3
C                     3.034339178970     1.824089032565    -0.158538227293
C                     6.322708390934     3.283353400481    -1.091457625639
C                     6.160232148550     1.780737316729    -1.115201875875
C                     0.588453763230    -0.051560370938     0.342975207502
C                     0.987214488315    -0.899823777156    -1.868942690912
C                     5.351429576892     2.614060579177    -0.151152675593
C                     1.127069780804    -1.297120189523    -0.395349532366
C                     1.568664210155     2.260117057420    -0.345768300071
N                     3.937029567286     2.795890250350    -0.404026265878
N                     0.701209716132     1.080572550959    -0.673900240275
O                     3.299299721799     0.685255949291     0.216867118721
O                     1.172507185116     0.538850914046    -1.922152983475
O                     0.314425509599    -2.420994078648    -0.134553809980
H                     7.220500667362     3.709934495562    -0.656869502558
H                     5.913751098346     3.843484863840    -1.927789900834
H                     5.631537034194     1.345878323709    -1.956882269966
H                     6.944371823626     1.160301871505    -0.694768714002
H                    -0.470849356430    -0.184675443335     0.566573894268
H                     1.158362754534     0.210882415516     1.228407158438
H                     1.762889021388    -1.308519280486    -2.515694261701
H                    -0.007217786650    -1.167454050764    -2.240082069551
H                     5.604029963566     2.560116831124     0.903996805138
H                     2.172487666172    -1.452765061040    -0.129236065856
H                     1.438665652856     2.969641967902    -1.165423031587
H                     1.170148880417     2.695897538468     0.575143818651
H                     3.616893690531     3.721026605533    -0.669179857845
H                    -0.240379287708     1.439720789879    -0.870197124253
H                     0.804016243164    -3.072568083692     0.390082721549
