27
0 1 C8H14N2O3
C                    -2.606438030170    -1.074142074163    -0.256482848742
C                    -4.713486303653    -2.745585278260     1.627104551595
C                    -3.885022380278    -2.620362190738     2.889724810613
C                    -0.239005104452     1.897346648119     0.226497366065
C                     1.141952784019     0.148119273068    -0.633702166609
C                    -3.213711176549    -2.625600378361     1.536718199997
C                     0.860912334376     1.655418945559    -0.819012024626
C                    -1.859374722434     0.219045979427    -0.590390366609
N                    -0.886479737689     0.597892257920     0.444597769318
N                    -2.647887914863    -1.392344385016     1.068687310184
O                    -3.162324132314    -1.718188914393    -1.143730306145
O                     0.232638954438    -0.318248179934     0.391733436940
O                     0.332178214368     1.978183007389    -2.110043532914
H                    -5.155279031579    -3.706724300223     1.384191790949
H                    -5.289312215853    -1.882019236591     1.312149864785
H                    -3.923158954160    -1.674818730271     3.423254884849
H                    -3.757119433526    -3.494498240268     3.521126516885
H                     0.203312133343     2.217055251318     1.173779829848
H                    -0.958344352445     2.644500080026    -0.111791590937
H                     0.971277962067    -0.387099924240    -1.575726752086
H                     2.149181495290    -0.066802923609    -0.268130811748
H                    -2.667048236304    -3.521576883734     1.248784571589
H                     1.747886937426     2.266381351405    -0.612452960463
H                    -1.426905705369     0.110570800279    -1.589674080032
H                    -2.603007485441     1.021384709667    -0.642563143750
H                    -2.012330273033    -0.876961517161     1.668788893542
H                     1.016523825395     1.812576512467    -2.777282622755
