27
0 1 C8H14N2O3
C                    -2.544996079172    -0.493012657998     1.838169369203
C                    -1.643030441381    -1.155927332841     5.371724983450
C                    -2.148575846681    -2.294001787666     4.508327606433
C                    -0.199665456765     2.057798628919     0.204537019832
C                     0.959299713106    -0.019499672203    -0.004533397663
C                    -2.628600220467    -0.885256608068     4.260054989741
C                     0.588991047436     1.234895500762    -0.825644213191
C                    -1.928747764503     0.372568961457     0.736827734581
N                    -0.726099899618     1.093719239077     1.178444960886
N                    -2.153597516155    -0.183249268418     3.103171978733
O                    -3.361146673284    -1.369069784847     1.555992633212
O                     0.366432934737     0.152897118851     1.304775267052
O                    -0.275870425337     0.952149952186    -1.931309066871
H                    -1.998436217357    -1.075608794638     6.394698764654
H                    -0.618091084345    -0.829209295935     5.218717462358
H                    -1.468940981767    -2.711035695058     3.773078423347
H                    -2.857277124584    -2.997787676046     4.933276983585
H                     0.469124037635     2.741746002345     0.733940247381
H                    -1.005146801122     2.624676916502    -0.264420379900
H                     0.566288149157    -0.919899855636    -0.492353218525
H                     2.033942124322    -0.132340050037     0.159570752575
H                    -3.655672087576    -0.661997541944     4.540287687414
H                     1.477862734910     1.775953115527    -1.171791933322
H                    -1.769799477789    -0.260967715563    -0.141377380775
H                    -2.674282109941     1.125475258741     0.460645020605
H                    -1.470457614236     0.559859916073     3.199633226500
H                     0.211316616001     0.420338428569    -2.579972819510
