27
0 1 C8H14N2O3
C                    -1.181666131360     2.947219665840    -1.976769167593
C                    -3.940719943318     4.337006775526    -3.074363232710
C                    -4.591785414353     3.032087117180    -3.485410907575
C                    -0.298537895201    -0.279379902139    -0.118636963833
C                    -0.416261234579    -1.293284136297    -2.285730414482
C                    -3.087382214492     3.169979760188    -3.500252672010
C                    -0.272852353076    -1.661450957206    -0.788790306658
C                    -0.458606174897     1.997634386880    -1.017880879185
N                    -0.856601244060     0.602586123280    -1.156355299618
N                    -2.342593490328     2.459508336889    -2.500090445040
O                    -0.741267002202     4.074157512182    -2.187744215580
O                    -0.179360540892     0.110081665908    -2.363808850300
O                     0.965199033568    -2.286257014600    -0.447322169394
H                    -4.000046222660     5.186222298549    -3.747511173496
H                    -3.929615651687     4.586823367275    -2.018966081170
H                    -5.028614126662     2.420714043360    -2.700719634049
H                    -5.104459207105     2.980835277723    -4.441265444201
H                    -0.929533230417    -0.238132919865     0.771973711083
H                     0.734342612564    -0.009639698449     0.142082387698
H                     0.334172995490    -1.783925720550    -2.909531601394
H                    -1.426147129837    -1.528436185058    -2.650156296477
H                    -2.597663578795     3.248680836496    -4.468958256030
H                    -1.114461091281    -2.285931909288    -0.464462811926
H                     0.621796859434     2.132042371496    -1.155749238251
H                    -0.712179570293     2.308303209251     0.001177297583
H                    -2.512031921477     1.469487632409    -2.357835566739
H                     0.936978489182    -3.208637801169    -0.745321658533
