27
0 1 C8H14N2O3
C                     0.175217660136     3.903613624547     0.041199642081
C                    -1.927486295993     5.242355522602    -2.731699599459
C                    -0.971140465953     6.177633596070    -2.020700649982
C                    -0.788039853997     0.968403741339     0.872913607838
C                     0.171786834942    -0.803862660062    -0.421211486298
C                    -1.576847395957     5.011507489058    -1.280687649600
C                    -1.038358253911    -0.504445462841     0.486484950181
C                     0.942076439552     2.589295276221     0.220772933379
N                     0.138636285158     1.435521260703    -0.169540202511
N                    -0.747111473446     3.883516950490    -0.964990050904
O                     0.424580604137     4.887038404977     0.732302830213
O                     1.061807292056     0.303771992283    -0.274244486023
O                    -1.020286248904    -1.393426298407     1.603491193342
H                    -2.929684437029     5.591956351580    -2.960541151774
H                    -1.507520471682     4.556576836188    -3.462347258609
H                     0.083321814669     6.103857773150    -2.264034461059
H                    -1.313319743303     7.172484264997    -1.754294738978
H                    -1.687957046806     1.589616209212     0.867810011148
H                    -0.322069918916     0.996019393839     1.868935414725
H                     0.701392435731    -1.700132461905    -0.094751460324
H                    -0.137858690998    -0.900731585953    -1.468995021343
H                    -2.334507450878     5.246042427232    -0.535775537185
H                    -1.976048957409    -0.619529028163    -0.070835947176
H                     1.814554105913     2.618588267017    -0.438869542431
H                     1.297581404504     2.537188169973     1.257663556630
H                    -0.916023177475     2.983633000594    -1.403323647948
H                    -1.807198061133    -1.224940433863     2.145191202782
