27
0 1 C8H14N2O3
C                    -0.831103819142     3.117650971022    -1.637214439870
C                    -3.998468729520     3.809024939133    -2.142754336435
C                    -4.321834788637     2.478386945550    -2.790725845907
C                    -0.882782604064     0.883498004027     0.666864961553
C                     0.406595738742    -1.075829334533     0.181754750264
C                    -2.933384920345     3.061729814736    -2.904962695941
C                    -0.753726839467    -0.598111252617     1.078101690268
C                     0.269862671172     2.245637784667    -1.027010450803
N                    -0.218838425542     0.925783226697    -0.644669914644
N                    -1.879177459718     2.422080696424    -2.170075888117
O                    -0.734605814725     4.341042344436    -1.651646949234
O                     0.966761323447     0.100822631086    -0.403264139567
O                    -0.394806241999    -0.776337110567     2.448459137897
H                    -4.390216126154     4.717223453658    -2.589267452084
H                    -3.895296615120     3.836057739977    -1.063241150626
H                    -4.450248147976     1.619236130981    -2.138016337696
H                    -4.940543491580     2.466626278382    -3.682817492039
H                    -1.914608943200     1.230086719279     0.564892931107
H                    -0.353132303676     1.500753977941     1.407631796039
H                     1.189238477325    -1.558899498882     0.768703978016
H                     0.044030671365    -1.750057495341    -0.603758848772
H                    -2.637415159190     3.476701751376    -3.866179475203
H                    -1.669711577510    -1.158212182450     0.853426556512
H                     1.037849619359     2.101475264855    -1.792919219540
H                     0.722984405832     2.797862869530    -0.193364771264
H                    -1.780219029985     1.412012573702    -2.195835266338
H                    -1.147163057543    -0.513448280642     3.001533975526
