28
1 1 C8H15N2O3
C                    -2.014386491629     0.362073340037    -1.920622523605
C                    -5.027165355878    -0.772281686928    -2.136333130824
C                    -5.575796671302     0.418820404363    -2.887271873155
C                     0.797317664027     1.328955067175    -0.620660414332
C                     2.661532193604     0.783964004118    -1.951106380088
C                    -4.454378947616     0.601646066424    -1.893381068187
C                     2.007827498856     1.986819274719    -1.269515845540
C                    -0.696700157903     0.763726299043    -2.609767110462
N                    -3.136752664921     0.910769220372    -2.412895873414
N                     0.380406277034     0.320147904953    -1.666110891724
O                    -1.952662600305    -0.451302735624    -0.992090935688
O                     1.554302906877    -0.062871607901    -2.391055756244
O                     1.506731976471     2.945318459124    -2.190537424568
H                    -5.617035779419    -1.208290984201    -1.337403831144
H                    -4.412727314113    -1.476703926779    -2.686900859123
H                    -5.333181482877     0.499174773155    -3.943177235905
H                    -6.549435017734     0.812026451520    -2.614538891874
H                     1.058642711793     0.779826981353     0.283872838912
H                    -0.025339322643     2.015339127027    -0.428781800222
H                     3.220331627963     1.043796322349    -2.850588716233
H                     3.287542346114     0.210177191631    -1.261675624780
H                    -4.675023915362     1.086869712140    -0.946840680189
H                     2.664922256277     2.432951308691    -0.515974667897
H                    -0.574729610481     1.826522237006    -2.814704463437
H                    -0.552518312540     0.190003130699    -3.527713492549
H                    -3.060044215983     1.624442922519    -3.129986668606
H                    -0.014481156624    -0.523483671350    -1.202379201616
H                     2.230384944791     3.503162601616    -2.520202724533
