11
0 1 CH6NO2P
C                    -0.505682647409     0.478933771305     0.413635229714
N                    -1.029351763621    -0.837067529887     0.791397747987
O                     0.045592458526    -0.330174849993    -2.225136628717
O                     1.338189209501     1.694410712147    -1.127323653571
P                     0.645992508414     0.217166839401    -0.974526533338
H                    -1.251149707965     1.226463125411     0.098918561522
H                     0.064853344804     0.902595401006     1.246944431923
H                    -1.627553997675    -1.201627489512     0.052538771975
H                    -1.590361793443    -0.768945388659     1.637090183770
H                     1.475246742077     1.917589422712    -2.064547691563
H                     1.683447155195    -0.564465006664    -0.422380830347
