28
1 1 C8H15N2O3
C                    -2.616598857044     0.463385248372    -0.836403978707
C                    -6.203055316897     0.099322143813     0.046573981708
C                    -5.344588506206    -1.141731937202    -0.038791689977
C                     0.183541697036     0.122526617419     0.771708402797
C                     1.877907609041     1.550514342014    -0.023682087789
C                    -5.029941615321     0.055599855759    -0.900960000004
C                     1.165396234053     1.172076037983     1.275418044726
C                    -1.500205713308     1.490238279538    -0.569324065274
N                    -3.871709070132     0.864316028654    -0.575666550483
N                    -0.234156311880     0.687926029326    -0.566122336770
O                    -2.287466491449    -0.642904097918    -1.278407181578
O                     0.855763567119     1.470578277223    -1.065559026185
O                     0.388058343546     2.231235591866     1.815489929351
H                    -7.195390743040     0.086294377690    -0.391541128649
H                    -6.109354940099     0.711140832471     0.939461404530
H                    -4.674006233501    -1.346332553551     0.789205387971
H                    -5.735453441633    -2.021241664887    -0.538819486212
H                     0.661653402128    -0.840039674858     0.590456169795
H                    -0.693182589981     0.002606986237     1.405518172299
H                     2.244173011564     2.577450554545    -0.036747626582
H                     2.683072886433     0.852198325622    -0.269679189558
H                    -5.225525052001    -0.018473269502    -1.966888111419
H                     1.857713079534     0.744438244806     2.007968328787
H                    -1.578357032704     2.037616587995     0.369062564466
H                    -1.413766901991     2.191342012058    -1.402234130281
H                    -4.026517862823     1.823429122125    -0.282055586161
H                    -0.419690027732    -0.088821447584    -1.233500907141
H                     0.960789532166     2.864031616586     2.279363613580
