28
1 1 C8H15N2O3
C                    -1.120846699141    -0.345352874794    -0.899458639589
C                    -2.746833183958    -2.364363062884    -2.823312583831
C                    -3.973707786985    -1.490395254666    -2.943821935389
C                     0.515901948365     0.762385739707     1.671037457470
C                     2.208893624196     2.294280621722     1.096296347968
C                    -3.154387146209    -1.474129781280    -1.676034610165
C                     0.986231181806     2.171396910230     2.006686275283
C                    -0.403740832982     1.002558865265    -0.696145484934
N                    -2.366769887841    -0.289468808538    -1.397258959607
N                     0.768243154626     0.684651089155     0.182943594494
O                    -0.497005977399    -1.375662205744    -0.622420357191
O                     1.867794720330     1.551791717591    -0.115871520772
O                    -0.069141336535     3.050940780428     1.645345083667
H                    -2.872684134948    -3.432897356186    -2.686443306048
H                    -1.865341766996    -2.076876933185    -3.386521879433
H                    -3.909026398315    -0.625648306425    -3.598252820023
H                    -4.955639800837    -1.948980606440    -2.894087829090
H                     1.125058558147    -0.003591552188     2.150844402924
H                    -0.540651037331     0.593064420765     1.870375596963
H                     2.413544210749     3.316810650793     0.777855002478
H                     3.100780568708     1.844381089432     1.541850615678
H                    -3.566351488297    -1.943424314521    -0.787144449114
H                     1.257700683703     2.254411246480     3.064080705662
H                    -0.995996946142     1.788293692125    -0.228956563690
H                     0.012206504260     1.362489169893    -1.639560420031
H                    -2.807162703916     0.616898694628    -1.515496733320
H                     1.030846731575    -0.287511106864    -0.078525828691
H                     0.112821507375     3.945977546452     1.976040834539
