11
0 1 CH6NO2P
C                    -0.600874129168     0.441242087288     0.274911646191
N                    -0.789501923004    -0.877257470099     0.913420705120
O                     1.389637987549     1.616297250090    -1.346227257870
O                     1.663724715262    -0.834984302086    -0.358497599665
P                     0.733428617686     0.330139135823    -0.998016191126
H                    -1.504578209348     0.879829985733    -0.168542417713
H                    -0.221905070979     1.148916777279     1.018331500039
H                    -1.423225632417    -1.457685472456     0.366927297379
H                    -1.204477161710    -0.775714152571     1.837081804200
H                     1.155480045803    -1.270152921984     0.367146995881
H                     0.132794645012    -0.318849272327    -2.103826753751
