28
1 1 C8H15N2O3
C                     1.111788455320     1.683463406227    -0.647099134381
C                     3.150047644368     4.410805570030    -2.062372778519
C                     2.678664237006     3.289759969050    -2.959148240936
C                     0.195016830765    -0.761773481674     1.299239449000
C                    -2.146673279980    -0.787603563262     1.681572634887
C                     2.980337126172     3.017425934469    -1.506753852657
C                    -0.925268342563    -1.716104839909     1.740025951752
C                    -0.049954296937     1.605660068474     0.367974507328
N                     1.876030236467     2.785041450768    -0.595686694932
N                    -0.489441907766     0.177755123070     0.343682712140
O                     1.231981184277     0.751545740342    -1.448717929608
O                    -1.915211935340     0.070713611988     0.531784831919
O                    -0.624005602777    -2.160098743944     3.041419649425
H                     4.163912343697     4.781736511057    -2.169133730427
H                     2.419597717575     5.161825758024    -1.774873530516
H                     1.636313589754     3.287977033442    -3.259731279054
H                     3.365009259455     2.876136883954    -3.690001792355
H                     0.549810793217    -0.199902633991     2.163904427690
H                     1.028787650131    -1.234276284049     0.781244610058
H                    -3.092493547754    -1.290657448793     1.479655137499
H                    -2.213170471455    -0.188918433836     2.595094862655
H                     3.870157972351     2.442130395420    -1.267545316610
H                    -1.030882673291    -2.542911295591     1.029213775371
H                    -0.899388174352     2.197737616076     0.020380662299
H                     0.209555186154     1.895210936523     1.386373435127
H                     1.725176212617     3.454104079986     0.152108210882
H                    -0.285714163934    -0.124225763108    -0.631979742414
H                    -0.987169338916    -3.047792890414     3.187861869952
