28
1 1 C8H15N2O3
C                     2.430593130995    -0.611475723616     0.232934134778
C                     4.759346986231    -3.441392248533    -0.264910297453
C                     4.915299182705    -2.194732360487    -1.104336550088
C                    -0.224144686520     0.762255112312    -0.118604022552
C                    -1.392422856705    -1.223411196392     0.384239970130
C                     3.548919840633    -2.611983849672    -0.619242044779
C                    -0.841953158485    -0.461588765826    -0.811507476846
C                     1.746334474368     0.041880984199     1.442937187175
N                     2.923200698547    -1.846849918082     0.436734095424
N                     0.259191754510     0.199990366280     1.223186375454
O                     2.507561654656     0.027918680537    -0.819249376480
O                    -0.357044272665    -1.085303887357     1.408024831829
O                     0.086832947796    -1.307042463310    -1.450419292550
H                     4.852114958076    -4.411953133145    -0.740685314736
H                     5.115483143177    -3.401228052791     0.760541313706
H                     5.362570413501    -1.323798267008    -0.637395453115
H                     5.114063207259    -2.297183915446    -2.165648564026
H                     0.624819694290     1.200640066004    -0.638956420051
H                    -0.983575580059     1.512196815984     0.106874116455
H                    -2.334919219541    -0.812561957690     0.757963421632
H                    -1.473100711525    -2.293850855742     0.200123787731
H                     2.843392821644    -3.005329118062    -1.346406987618
H                    -1.642284597853    -0.133906774421    -1.486666015860
H                     2.145893717280     1.051391851567     1.564678749035
H                     1.842501372603    -0.509275051572     2.379470701825
H                     2.701036171981    -2.326496993809     1.301879170138
H                    -0.099797165028     0.788081944752     1.984827176526
H                     0.748078153207    -0.789321865166    -1.943006910121
