28
1 1 C8H15N2O3
C                     2.051965529693     1.311438756449    -1.332965981719
C                     5.422391240698     1.812670833013    -2.770258271543
C                     4.205733049319     2.066294394408    -3.629926933639
C                    -1.049573979679     1.590595541601    -0.788496639765
C                    -0.577991310638    -0.797360373919    -1.060247155928
C                     4.159239454921     1.018301643861    -2.545621873558
C                    -1.460000220578     0.342111203994    -1.619555865143
C                     1.426770320671     1.678139280226     0.020196371043
N                     3.396489514291     1.290165848456    -1.342938686094
N                     0.037071287239     1.120309002177     0.169478944957
O                     1.336860630737     1.112779778864    -2.316677539154
O                     0.061764616802    -0.315511190732     0.162648293771
O                    -1.343891903587     0.521591672318    -2.999674573810
H                     6.269466506492     1.286222546884    -3.196981948131
H                     5.681653508071     2.569548409468    -2.035317746940
H                     3.651960745544     2.983703492290    -3.459982598492
H                     4.203926925165     1.714780954947    -4.655988352740
H                    -0.652047512812     2.375795931229    -1.424869383836
H                    -1.863851646305     1.970537587344    -0.171604411682
H                    -1.147275211362    -1.671751698535    -0.744574423269
H                     0.192320455914    -1.073658903619    -1.779888410647
H                     4.142809534426    -0.026268578992    -2.843315318350
H                    -2.514608887491     0.130941926804    -1.438057659991
H                     1.338370293943     2.765046780911     0.116822531596
H                     1.997793050083     1.290359506148     0.865858072213
H                     3.903171174190     1.359944049764    -0.466824201727
H                    -0.255703979265     1.333719784072     1.128467380152
H                    -0.407929879158     0.707050176213    -3.204611619863
