28
1 1 C8H15N2O3
C                     1.774122829142     2.265397833225     0.425235646147
C                     4.734171734982     4.405892445384     1.001648918592
C                     4.091846948524     4.383413680114    -0.366020811525
C                    -0.943956616765     1.158101378034    -0.749412986846
C                     0.661194769532    -0.691444645019    -0.781768357911
C                     4.055085436332     3.152798064088     0.505980515969
C                    -0.283838722857     0.118250865556    -1.698534219726
C                     0.510192486102     1.984566890131     1.249841100349
N                     2.801537910007     2.773864370812     1.128182984444
N                    -0.342951018811     0.911976712807     0.628257700418
O                     1.780007237390     2.072958143102    -0.791921088373
O                     0.354475239018    -0.343134077084     0.604419923402
O                     0.351895653577     0.688508007839    -2.803515392325
H                     5.816184769810     4.386490549254     1.076779530424
H                     4.235342832052     4.978206949285     1.778731422886
H                     3.163805997841     4.930440371481    -0.495231175244
H                     4.726514186195     4.346319580045    -1.244771910760
H                    -0.722689193742     2.174595119705    -1.061378790810
H                    -2.019373865128     1.011750488202    -0.649333606320
H                     0.500115681986    -1.768248210672    -0.834971257868
H                     1.701735725975    -0.442974962733    -0.989470455433
H                     4.672399228148     2.305305372727     0.221921475472
H                    -1.062254907183    -0.527110773662    -2.107572143045
H                    -0.112895491641     2.882755885422     1.309469571629
H                     0.735951459455     1.639609527677     2.260594311763
H                     2.748375232809     2.801301796427     2.140895892530
H                    -1.103948975408     0.731574624162     1.291020411441
H                     1.063636139080     1.271311899452    -2.477663195171
