28
1 1 C8H15N2O3
C                     1.772991046090     0.897844876643    -0.901571474854
C                     4.717191422561    -0.523182029756    -1.098693848823
C                     5.293168118516     0.215195326202     0.087989215876
C                    -1.158761140305     0.989996044822    -2.123162783193
C                    -0.625912820946    -1.330040997021    -2.155349124473
C                     4.214684002461     0.856408142004    -0.749053754896
C                    -1.590194060143    -0.322176601042    -2.797504807063
C                     0.481337908042     1.221923509916    -0.126882947095
N                     2.897657161126     0.990819788527    -0.161675972980
N                    -0.707754918547     0.541814364635    -0.746005942876
O                     1.729084154567     0.615377627654    -2.095550575637
O                    -0.497242477278    -0.888754289510    -0.769567521139
O                    -1.410505111874    -0.167450344120    -4.183643308675
H                     5.313443389881    -0.618331262006    -1.999764938998
H                     4.052958763082    -1.356977953289    -0.896870185138
H                     5.022566075653    -0.141153157808     1.078128519553
H                     6.291756609503     0.632860880679     0.015172182685
H                    -0.306083861681     1.407391962344    -2.651667806511
H                    -1.959707139627     1.719063210397    -1.996135487139
H                    -1.015812791145    -2.346142189745    -2.087405802809
H                     0.347816829722    -1.294086585911    -2.645147009749
H                     4.486335128561     1.677712848063    -1.406017466873
H                    -2.628209036797    -0.565400089254    -2.540391427799
H                     0.272108112955     2.296094530073    -0.147953979274
H                     0.519197457654     0.883002540697     0.910215261793
H                     2.836980733756     1.274770453531     0.810050456189
H                    -1.490735616156     0.652562100607    -0.093262741953
H                    -2.016876661996    -0.750634036801    -4.666871236626
