27
0 1 C8H14N2O3
C                     0.084496185902     1.513234416076     2.742044733463
C                    -0.838044872569     2.679138670834     6.177561305172
C                     0.376312996058     3.286567511732     5.507056847975
C                     0.773790148901    -0.837005573819     0.870558594623
C                     0.017047031084    -1.591639512986     3.020713368514
C                    -0.051066161757     1.882018400491     5.164866299150
C                     1.302632527983    -1.424136637444     2.201356024007
C                    -0.704295919959     1.075740845519     1.503628717263
N                    -0.582250837927    -0.336987710241     1.118113901023
N                    -0.659614995638     1.639851478081     3.885000096626
O                     1.299248624932     1.714988641126     2.704254881782
O                    -1.088999639830    -1.173942689427     2.183901738142
O                     1.919418941790    -2.706440732919     2.038452105893
H                    -0.767096628697     2.380880641585     7.219021225467
H                    -1.814715335625     3.045861663475     5.874647384319
H                     0.210057454703     4.043622410178     4.748338766723
H                     1.287957840669     3.404619729455     6.083737238493
H                     1.401396389838    -0.037093983650     0.474866113090
H                     0.711103673647    -1.656012359591     0.146788715181
H                    -0.142744547142    -2.643266610282     3.268471302160
H                     0.039304240440    -0.994217354933     3.938078131929
H                     0.578330089888     1.073701131961     5.533502267407
H                     1.991251969959    -0.731851881269     2.692228959245
H                    -1.773128790918     1.276319725651     1.620878114948
H                    -0.340905669515     1.662703614916     0.656095935436
H                    -1.596939693718     1.255432561385     3.870336897749
H                     2.799422995075    -2.570342386955     1.654451360904
