27
0 1 C8H14N2O3
C                    -1.055535319710     0.935108498631     3.060918580780
C                    -2.996354912873    -0.780817267710     5.765882893406
C                    -2.691336231999     0.694410804995     5.921243258088
C                     1.445592365581     0.165783023148     1.568931561065
C                     0.758369136508    -1.890606734949     2.523096133227
C                    -1.763876217350    -0.188003840987     5.125398273072
C                     1.622975217775    -0.672175905751     2.848196136726
C                    -0.962911130606     0.773194353571     1.541203791790
N                     0.100881586719    -0.125391477002     1.060568329453
N                    -1.750640780922    -0.061198651192     3.693980289503
O                    -0.510436727844     1.865467388374     3.656874759207
O                    -0.215293403906    -1.477348824462     1.543571584635
O                     2.963156329674    -1.105348770841     3.074565711787
H                    -2.855804794831    -1.437341852562     6.619090492264
H                    -3.815600870869    -1.057401272640     5.108385490337
H                    -3.294410108497     1.397741426346     5.357316689236
H                    -2.336260847815     1.057161830536     6.880411163734
H                     1.554329942540     1.239004381882     1.736799695884
H                     2.186409540694    -0.169454237673     0.835106325059
H                     1.392242603072    -2.676365089028     2.097499307758
H                     0.227000772345    -2.280865937098     3.396321251814
H                    -0.799557808745    -0.417587664884     5.576513452417
H                     1.243891381049    -0.134775339436     3.722421940002
H                    -1.901192972675     0.398605236945     1.122457371692
H                    -0.761753658696     1.756407431366     1.110901437896
H                    -1.962900210792    -0.882326321014     3.137750026377
H                     3.459039779331    -0.366426050141     3.459311157280
