27
0 1 C8H14N2O3
C                     0.873968972409    -1.212793160408    -4.115189966015
C                    -1.379013955987    -1.893447014251    -6.430125030449
C                    -2.279738662636    -2.671157032756    -5.491642831305
C                     0.666670938729    -0.225869158631    -0.423065278735
C                     0.398294303000    -2.574743447980    -0.037807161068
C                    -0.792599461807    -2.609657078644    -5.239601049385
C                     0.268315446968    -1.217247594247     0.687083097655
C                     1.241150909861    -0.531113697630    -2.794023604199
N                     0.464275901243    -1.000967618809    -1.655867269783
N                    -0.338135156937    -1.834193740196    -4.120696345939
O                     1.623986200252    -1.136295794969    -5.085384506536
O                     1.042113718739    -2.297577660333    -1.280274256363
O                    -1.083162566483    -1.092854822812     1.131913350397
H                    -1.171362685936    -2.301957686565    -7.413991515096
H                    -1.409813837100    -0.810344096624    -6.378348024945
H                    -2.923031684637    -2.102177117881    -4.826179215674
H                    -2.696489978814    -3.615419974333    -5.828869745520
H                     0.026042466862     0.659761117341    -0.435657230383
H                     1.719221190961     0.076821084307    -0.308927972226
H                     1.019433638583    -3.302869196714     0.486334663854
H                    -0.610082362978    -2.976890605583    -0.193691950949
H                    -0.207269272898    -3.503668410361    -5.444648614099
H                     0.955838195634    -1.137080432478     1.537286795618
H                     2.320954042448    -0.652368389997    -2.636969576103
H                     1.032963546253     0.537627768550    -2.911230397827
H                    -0.791967428422    -1.936635918135    -3.218953613464
H                    -1.146281739358    -0.317279970850     1.710336628392
