27
0 1 C8H14N2O3
C                     0.409619520825    -0.803447282411    -3.614050484879
C                    -1.731053101257    -3.808567105594    -4.149372300232
C                    -0.760727208368    -3.399070226879    -5.238377173624
C                    -0.572645625957     0.747957305008    -0.992894893457
C                     0.391895513336    -0.042885928764     1.050010233371
C                    -1.356386132080    -2.356333147969    -4.325904865193
C                    -0.844319347923     0.718826200104     0.521855165526
C                     1.173494825586    -0.274022787230    -2.395083387495
N                     0.372070931617    -0.363222882275    -1.181241450773
N                    -0.524365291166    -1.754317932815    -3.322954070119
O                     0.670748900025    -0.410950846018    -4.747994976164
O                     1.286453119978    -0.162723071803    -0.056095588970
O                    -2.004471525779    -0.026769196509     0.896389628730
H                    -2.736312257284    -4.109065200185    -4.428871431289
H                    -1.325829074514    -4.326773927634    -3.284751640133
H                     0.289362237540    -3.629034841405    -5.093474721194
H                    -1.096554464737    -3.412522377251    -6.270334171905
H                    -1.476433167967     0.573515439830    -1.582388839163
H                    -0.120314101042     1.707300706984    -1.288969167111
H                     0.932274283700     0.480114990092     1.840852498749
H                     0.063275936332    -1.028991976035     1.398727050651
H                    -2.100654844383    -1.693107576223    -4.761952967031
H                    -0.903440592264     1.737790686047     0.921923291703
H                     2.056380285825    -0.904643306228    -2.254155971394
H                     1.513473964015     0.745715874388    -2.619255199639
H                    -0.701040368841    -1.927167233886    -2.337704496163
H                    -2.788852770252     0.508339323386     0.699973256537
