11
0 1 CH6NO2P
C                    -0.643562293825     0.482976145434     0.208214494523
N                    -0.637106734029    -0.748757209279     1.022334709762
O                     0.225113440656    -0.656405144264    -2.191038364883
O                     1.897659413017    -0.245685686272    -0.136131943425
P                     0.656782982084     0.228669659682    -1.074141095186
H                    -1.603236320430     0.715900643895    -0.271197690023
H                    -0.349981138055     1.327758137117     0.839369932305
H                    -1.105913064251    -1.500254969123     0.519163442143
H                    -1.140344561558    -0.607899369398     1.895132311373
H                     1.535115285183    -0.817707973226     0.576632367686
H                     1.129890729263     1.500143661989    -1.454420703071
