27
0 1 C8H14N2O3
C                    -1.531778193149    -2.842620540423    -1.638744095391
C                    -1.973131370609    -3.481426282555    -4.821383663621
C                    -3.076194281111    -2.460137682054    -5.008647651366
C                    -0.215120685756     0.109240300602    -1.567622688860
C                    -0.192226855049     0.595894000104     0.781609398368
C                    -2.880461706419    -3.129013183626    -3.669192263678
C                     0.727564265254     0.621195444242    -0.455318428638
C                    -1.195149915945    -1.871423230254    -0.501795237535
N                    -1.385653097941    -0.466965735464    -0.894290573239
N                    -2.358193581581    -2.333166113651    -2.594869332619
O                    -1.090695885628    -3.989363394219    -1.637865354298
O                    -1.525527790066     0.352170968605     0.283776015358
O                     1.170575095618     1.925292406654    -0.836217782414
H                    -2.088058781028    -4.464266454461    -5.267034712551
H                    -0.952117884047    -3.119416343240    -4.765113800720
H                    -2.785590424499    -1.416636375999    -5.092434633970
H                    -3.952539058108    -2.735311329174    -5.587507643438
H                    -0.527466740588     0.973322983273    -2.159238338842
H                     0.243534967210    -0.631611413908    -2.225232896635
H                     0.099073790365    -0.192468064605     1.488023895166
H                    -0.217489367620     1.559490658619     1.295393457825
H                    -3.606193399241    -3.882122960131    -3.369705320901
H                     1.590321089132    -0.040894343873    -0.312750896565
H                    -1.889405291010    -2.073314041235     0.318412785797
H                    -0.182441865705    -2.120036494193    -0.157200403804
H                    -2.714426879587    -1.396861462854    -2.428825753196
H                     1.869794724431     2.204551370634    -0.225224208030
