27
0 1 C8H14N2O3
C                     0.114861654859    -0.683813835556    -3.886357563174
C                    -2.552799194027     1.473196333847    -5.348029216430
C                    -2.549775253191    -0.006133560755    -5.676931945575
C                    -1.193699621131    -0.744837842393    -1.093462773342
C                    -0.796700220057     1.493535762658    -0.312033067679
C                    -1.253884172991     0.703944556875    -5.374631621574
C                    -1.792804403960     0.325357321210    -0.156306941001
C                     0.838676376777    -0.760870520140    -2.527498882328
N                     0.180031574638    -0.269476758108    -1.322140540019
N                    -0.601658840762     0.455584869364    -4.119522234003
O                     0.216880422236    -1.600055235130    -4.700268446491
O                    -0.006319211995     1.184282055400    -1.459323355299
O                    -1.821041982560    -0.033386716281     1.224402795108
H                    -2.735947595976     2.186683284065    -6.145645479281
H                    -2.936611202671     1.771903454628    -4.376298855474
H                    -2.915094534487    -0.694553561132    -4.922213084050
H                    -2.726558330643    -0.314187099390    -6.702466997397
H                    -1.153756542087    -1.726176214667    -0.613466186651
H                    -1.777102287341    -0.813915809958    -2.022650890257
H                    -1.267927774147     2.460501539012    -0.496849949499
H                    -0.172388911605     1.536172655335     0.587190246804
H                    -0.583256401630     0.874021128114    -6.214094503856
H                    -2.798831988799     0.602327138661    -0.494423682571
H                     1.058974807535    -1.817017595165    -2.357279464992
H                     1.797189145161    -0.238290170165    -2.611792239896
H                    -0.546165577168     1.192324654693    -3.423350528338
H                    -2.535437413630    -0.674366207268     1.361511726667
