28
1 1 C8H15N2O3
C                     2.983440724054    -0.096679946125     1.211398778458
C                     6.653856969329    -0.450070297776     0.981015166709
C                     5.769568083501    -1.596748486117     0.548605687371
C                    -0.610059761819     0.900422583504     0.851965011390
C                    -0.559543669188     0.444390130764    -1.474766709554
C                     5.322059045759    -0.674350072655     1.654884889334
C                    -1.458518318009     0.263263106382    -0.241784295536
C                     1.949734969721     1.041711231845     1.053573516912
N                     4.261413361182     0.275275238561     1.381582195868
N                     0.744647857191     0.396333410387     0.465362757149
O                     2.556552161139    -1.253575943142     1.195167886803
O                     0.814597056823     0.510899720861    -0.963873344112
O                    -1.587043656537    -1.097176877680     0.139729237186
H                     7.545379771127    -0.660815285970     1.562160362939
H                     6.741728512069     0.395824865796     0.304958524009
H                     5.260481456058    -1.509775237567    -0.405309007312
H                     6.042239786061    -2.607745182549     0.831228932510
H                    -0.597944302498     1.990124298614     0.807158402189
H                    -0.859957820399     0.538008903144     1.849331621614
H                    -0.617160039377    -0.403260011985    -2.159155744863
H                    -0.747959008958     1.381759978244    -2.002584934938
H                     5.311661009909    -1.060347519678     2.670229273979
H                    -2.423481179788     0.766840893227    -0.357107181252
H                     2.255130472395     1.855814650999     0.396055301304
H                     1.676815130675     1.433531998899     2.036330015318
H                     4.484319582525     1.264340333667     1.419746784392
H                     0.863215001383    -0.624047349567     0.690066011383
H                    -2.192702912966    -1.566232175196    -0.457493040051
