28
1 1 C8H15N2O3
C                     2.603507864828    -0.248084891077     2.317556804132
C                     6.193901942888    -0.374501278501     3.186812305165
C                     5.628593623546    -1.394243459148     2.225298144185
C                    -0.818886879508     0.663149327893     1.094803486139
C                    -0.030459006321     0.846832786212    -1.134857459559
C                     4.760785538603    -0.828096161088     3.321471225614
C                    -1.224433302175     0.308853977377    -0.330710313828
C                     1.530978257127     0.847722618859     2.122638141031
N                     3.720253101913     0.116574231066     2.965989671462
N                     0.640382208669     0.335720568951     1.045788404667
O                     2.344419897845    -1.374898703573     1.888572032699
O                     1.113116171525     0.832302479609    -0.215104339472
O                    -1.296102888669    -1.107965361643    -0.350304888672
H                     6.891041360210    -0.699846396884     3.951729776817
H                     6.373116123947     0.626846040832     2.805328935544
H                     5.419951241622    -1.070698458757     1.211147551577
H                     5.928718177236    -2.431989798991     2.322035569539
H                    -0.926217665312     1.724617703113     1.321474051905
H                    -1.305247605339     0.037139820980     1.843188212872
H                     0.219542083062     0.208680477392    -1.983672443059
H                    -0.166660319587     1.881943887048    -1.455288315567
H                     4.496275325580    -1.477067492690     4.151451416326
H                    -2.165461965558     0.787524668232    -0.619430897542
H                     1.914256659347     1.820348823916     1.813676851808
H                     0.935246301668     0.949491275920     3.032888725403
H                     3.799868305393     1.067327864513     3.311104337135
H                     0.810418144391    -0.701882887754     1.042374576645
H                    -1.640776278758    -1.423212662284    -1.201963887465
