28
1 1 C8H15N2O3
C                     2.890349509602    -0.399353922155     0.350613504822
C                     6.572646317725    -0.232021997311     0.719262205083
C                     5.975122187224    -1.118126707111    -0.349657038181
C                    -0.024994087431    -0.705063179289    -0.853731198540
C                    -0.208955887671    -2.113020091222     1.021204403116
C                     5.221450831987    -0.869450291164     0.932941687290
C                    -0.974205402147    -1.724030237033    -0.242831087435
C                     1.787831445248     0.678769295042     0.377186106705
N                     4.058102900039    -0.007453445137     0.901698424467
N                     0.428997910903     0.044816779987     0.392157614808
O                     2.688885226037    -1.487041112542    -0.184416104167
O                     0.341393417442    -0.850620186886     1.514045200231
O                    -2.169605883502    -1.009780504325     0.039671775180
H                     7.398519908070    -0.607580619505     1.314119674034
H                     6.602603637592     0.836281236053     0.524250454420
H                     5.598324671220    -0.639991300172    -1.247691905317
H                     6.383592599736    -2.111928758477    -0.497722599761
H                     0.850401895995    -1.159627117643    -1.307396350570
H                    -0.527771567829     0.004721546620    -1.510869909420
H                    -0.845607735678    -2.487647250398     1.823394000633
H                     0.617486779846    -2.795395956501     0.810006666775
H                     5.140669798194    -1.687703978389     1.643036071826
H                    -1.129308681957    -2.577164645390    -0.911143814336
H                     1.836121326396     1.304419728760    -0.519055675204
H                     1.841098031683     1.316155461098     1.261562359690
H                     4.095378492016     0.856268248717     1.431539223359
H                    -0.274988546223     0.765933661233     0.593416810454
H                    -2.860388289700    -1.613105538911     0.359536400988
