28
1 1 C8H15N2O3
C                     2.207411531123    -1.298381726826     1.634002736376
C                     3.501900476926    -3.951970139689     3.040704863308
C                     4.089583011997    -3.200989036723     4.213550462542
C                     0.439075223029    -0.250167049940    -0.773348106010
C                    -0.773349243741    -2.184083510514    -0.205180213565
C                     3.928954762268    -2.513345074726     2.880525361145
C                    -0.701501890746    -1.112085815870    -1.291641173352
C                     1.276361027932    -0.069005300950     1.672122762887
N                     2.908480332656    -1.491748313167     2.770174529249
N                     0.132514371594    -0.239257458480     0.718956361822
O                     2.290345506522    -1.992441687331     0.623269961786
O                    -0.575485534835    -1.448078567119     1.043099051998
O                    -1.843123589751    -0.266133479992    -1.301725322448
H                     4.104096443140    -4.704412184515     2.542954439409
H                     2.435770394445    -4.152455228452     3.055601847385
H                     3.413031964321    -2.916874326784     5.014838691350
H                     5.099809353414    -3.431550536684     4.534773766714
H                     1.413268750440    -0.708483590275    -0.912049712803
H                     0.394180034855     0.777258884350    -1.134994198951
H                    -1.753246158460    -2.654145244875    -0.115414930800
H                     0.022984171841    -2.925241338165    -0.303054041686
H                     4.818223914745    -2.309204779048     2.290993621603
H                    -0.469072982618    -1.534427878695    -2.274565521477
H                     1.810234268297     0.835802404762     1.365935134846
H                     0.836265582991     0.090985200280     2.658137966306
H                     2.804548108111    -0.839227324338     3.539586641625
H                    -0.555926944041     0.504920992066     0.887517634119
H                    -2.602689143015    -0.722479549606    -1.699589446710
