28
1 1 C8H15N2O3
C                     2.360550076493    -2.730046635065    -0.387721897967
C                     3.853960709907    -5.616792267942    -0.126331988950
C                     5.130088661737    -5.164912787368    -0.798456273464
C                     0.965962678617    -1.146969299308     2.111311954812
C                    -0.394553263542     0.674841270817     1.458821827598
C                     3.812340446029    -4.535271627217    -1.177129685637
C                    -0.372577512961    -0.499531930730     2.445524670344
C                     2.237156386339    -1.217125380771    -0.111348431482
N                     3.576232306342    -3.166969673211    -0.759778346004
N                     0.946124295957    -1.046822067680     0.613241693803
O                     1.347920799572    -3.422306070110    -0.263150137631
O                     0.382092897099     0.229976658599     0.295453342407
O                    -1.347997577894    -1.481926948182     2.138894666030
H                     3.430202590034    -6.579001926529    -0.392654046533
H                     3.692988034607    -5.315369801307     0.903360813508
H                     5.823205168068    -4.571549122181    -0.208683911752
H                     5.598663371094    -5.813485024100    -1.531019067273
H                     1.818541281567    -0.578065686495     2.483499876927
H                     1.019294994153    -2.198098096884     2.393640120155
H                    -1.399144502677     0.908295226952     1.104114687251
H                     0.093319914259     1.568633671338     1.854801996321
H                     3.377688191961    -4.778640893168    -2.142442587557
H                    -0.414173625192    -0.163838836659     3.486670222334
H                     2.143601358646    -0.661496596337    -1.047110379299
H                     3.046418945288    -0.794455751960     0.484776522724
H                     4.317693416036    -2.489795540536    -0.906763534099
H                     0.320941549058    -1.800126909488     0.253908777328
H                    -2.229617696045    -1.192009672541     2.425485586643
