27
0 1 C8H14N2O3
C                     0.964962152681     0.798680268885    -1.712139381687
C                    -0.543688874361    -1.613722649498    -4.098954756274
C                     0.737039828807    -1.985039048498    -3.381624217346
C                     1.043821003174     0.064870008595     1.123591604834
C                     1.187996884711     2.153112816289     2.225548344462
C                     0.443535075643    -0.541539271863    -3.704563166953
C                     2.088783558011     0.986060702076     1.770289146629
C                     0.404131307554     1.722710379109    -0.638127416325
N                     0.011818691449     0.959711635230     0.574592352496
N                     0.076227506229     0.346629541274    -2.633713728646
O                     2.157293998892     0.464402475140    -1.710066382882
O                    -0.130256970406     1.930546675972     1.632769970438
O                     3.112379323525     1.426499884658     0.879340787860
H                    -0.640795205023    -1.844100006373    -5.155295928207
H                    -1.469258795016    -1.675617951904    -3.533127409340
H                     0.663676991657    -2.276648484689    -2.339362022065
H                     1.530355235629    -2.470451462309    -3.940510251556
H                     1.458493123882    -0.593981495455     0.361251702457
H                     0.551754027186    -0.543080664534     1.888170418947
H                     1.029085571608     2.178184269428     3.306712372665
H                     1.609904932263     3.105178502297     1.889685580303
H                     1.034903171234    -0.079347344560    -4.491094379057
H                     2.573768714142     0.503809481794     2.625735599013
H                     1.177716357952     2.467672355892    -0.425542796475
H                    -0.493309605790     2.245215009118    -0.980705100614
H                    -0.872444386406     0.696827065182    -2.595508986156
H                     2.966091977292     1.049277227683    -0.012684610578
