14
0 1 C8H6
C                     1.718026335278    -1.118512678385     5.325701906969
C                     1.755460823296    -1.100425877584     4.112751538595
C                     1.885299616703    -1.036663595644    -0.127536094651
C                     2.923490396611    -1.632510440767     0.597833222910
C                     0.804047390535    -0.461869171539     0.550361042264
C                     2.884499836546    -1.655526781291     1.992299402162
C                     0.757957262010    -0.480963758587     1.944656106773
C                     1.799379510180    -1.078937832595     2.680848193689
H                     1.685128049562    -1.134421645084     6.394413448178
H                     1.918614190256    -1.020359338861    -1.213700889828
H                     3.764812146139    -2.079909282647     0.075133644017
H                    -0.004155332296     0.001815151917    -0.009118458896
H                     3.687699744486    -2.116696581644     2.559449676248
H                    -0.078820950821    -0.036322961870     2.475272240239
