13
0 1 BrC3H5N4
C                     0.141105817614    -0.009867551572    -2.017489899007
C                     0.271479101172    -0.528751000761    -0.619867436990
C                    -0.448484279591     0.399882617814     0.358144622590
N                     0.793383914104     1.097171845205    -2.479285520205
N                    -0.646912377159    -0.549571208234    -2.950660884073
N                     0.420803988095     1.263443251292    -3.727493420928
N                    -0.431956133221     0.273587565433    -3.976797557466
Br                   -0.267904043438    -0.264834259980     2.213440198371
H                     1.330049432105    -0.590315207570    -0.354762502867
H                    -0.152628619626    -1.533409641198    -0.571313025446
H                    -0.022798520600     1.401901674698     0.354715072713
H                    -1.519019635348     0.448613224202     0.162667291233
H                    -0.873340579763     0.153336574066    -4.882383037259
