27
0 1 C8H14N2O3
C                    -1.167425559863    -0.300656657251    -3.165688582810
C                    -3.572405466091    -3.143623321904    -3.230009210208
C                    -2.361801490636    -3.154612670953    -4.139515882549
C                    -0.407366432431    -1.153506839237    -0.217435328043
C                     1.908984271002    -1.578255901647    -0.658166007891
C                    -2.993714895395    -1.845045725425    -3.745823648538
C                     0.802370401495    -1.916256795742     0.363588332057
C                    -0.555573924632     0.564708671603    -2.047943020877
N                     0.241421692728    -0.119414129360    -1.032166949339
N                    -2.292296085471    -1.010194283861    -2.809873620556
O                    -0.675538255413    -0.358459832287    -4.285628404506
O                     1.262555826402    -0.896764143317    -1.732984804455
O                     0.610267188702    -3.331600963327     0.407201186264
H                    -4.530863776848    -3.462162618096    -3.628756499484
H                    -3.413649249537    -3.380581214356    -2.181612771534
H                    -1.396968414860    -3.378027876105    -3.697509684535
H                    -2.483730666984    -3.478078728688    -5.168060068828
H                    -0.998368263307    -1.864385559652    -0.810050159850
H                    -1.033478393345    -0.676720405551     0.543946805917
H                     2.674995996457    -0.935247259479    -0.208588612228
H                     2.361589560455    -2.483927515614    -1.065388863962
H                    -3.548632984251    -1.313917734719    -4.516736830281
H                     1.070011126353    -1.541452356909     1.358476355603
H                     0.096805842675     1.289369463212    -2.538144446110
H                    -1.333824095483     1.113306929326    -1.504096795673
H                    -2.763073733097    -0.766501351961    -1.948169938704
H                    -0.005705281763    -3.535994052250     1.127794208530
