27
0 1 C8H14N2O3
C                     1.234190922473     0.894894232142     2.938331446656
C                     4.052456531575    -1.540266682451     2.661760978079
C                     3.890401747089    -0.768939393082     3.956108940489
C                     0.246887839309     1.633717853825     0.157755934039
C                    -0.310679681088    -0.508298042272    -0.767546588080
C                     3.422157905783    -0.168938856112     2.654225621602
C                     0.322466510777     0.831674679641    -1.163656971439
C                    -0.239275344670     0.910670814578     2.485032797471
N                    -0.540473350207     0.770675226627     1.062358366620
N                     2.011358179789    -0.086760127720     2.394868721468
O                     1.644302212971     1.713738422924     3.760311488671
O                    -0.160616814210    -0.588762416422     0.648984624533
O                     1.666691679588     0.580134139668    -1.582194721087
H                     5.044859332561    -1.643257595990     2.233407128759
H                     3.396844369945    -2.391021682523     2.498769348842
H                     3.119197443795    -1.095060221755     4.645758992125
H                     4.770402588267    -0.335708958803     4.420899937538
H                     1.269027081593     1.812111847250     0.518330686550
H                    -0.273452990377     2.589924679596     0.056480665935
H                    -1.375144897978    -0.532489828258    -1.028735711387
H                     0.217897548461    -1.354141404686    -1.209092560673
H                     4.011166061518     0.654700198792     2.255868425890
H                    -0.241437403999     1.312827354492    -1.971701655496
H                    -0.790495855392     0.126481883687     3.013266807972
H                    -0.647079401362     1.873152136870     2.801270749600
H                     1.612262041020    -0.628299007991     1.633308815716
H                     2.091670314947     1.428348903916    -1.784998669679
