29
0 1 C10H15N3O
C                    -1.705937620574     1.538170405140    -0.397659708397
C                    -2.900329347287     1.861369381845     0.196320771038
C                    -0.879077527490     0.568032946965     0.227800205649
C                    -3.214020427711     1.187473200359     1.398463123517
C                     1.227695346297     1.090181001493    -1.210932192328
C                     0.513432230697    -0.061913273264    -1.865104573895
C                     0.435875388980     0.122559161817    -0.344355682675
C                     0.418910835457    -2.508447433806    -2.503810793669
C                    -4.700517196823     0.807700978167     3.214461179409
C                     1.267514973589    -1.231452949001    -2.462547899036
N                    -1.248005802655    -0.021537697686     1.364847262920
N                    -2.418646802003     0.285570418237     1.953074607097
N                     1.237376966164    -0.778867942911     0.452509963470
O                    -4.390557551291     1.497956397949     1.990024961468
H                    -1.406353483818     2.019329657664    -1.323502531032
H                    -3.588145418880     2.594200489667    -0.214128785409
H                     2.306957882028     1.013863678016    -1.116480669647
H                     0.853025043303     2.101060030081    -1.344019091330
H                    -0.406833408102     0.189950795073    -2.390641288777
H                     0.127445610639    -2.813785991720    -1.493415517720
H                     0.971460057237    -3.337308107794    -2.959166905017
H                    -0.498891282339    -2.359832903786    -3.084926784609
H                    -5.671421887869     1.198071159360     3.521233532392
H                    -3.943794468203     1.011926561335     3.976369384309
H                    -4.753126206489    -0.271363068485     3.048132410512
H                     1.586348063677    -0.961932533774    -3.478149141007
H                     2.171786807999    -1.409022711878    -1.875047178671
H                     0.632566420020    -1.518774462254     0.808458109045
H                     1.550536689167    -0.280780348460     1.285860859552
