29
0 1 C10H15N3O
C                    -2.768121300505     0.889976397819     0.084582436495
C                    -3.773386378025     1.433066259453     0.845099603845
C                    -1.538527134082     0.568644252478     0.717742566887
C                    -3.497124091672     1.626384256743     2.217697757121
C                    -0.214700164502     0.227020283109    -1.498572439598
C                    -0.700712908692    -1.126432572066    -1.054373955653
C                    -0.380050569405    -0.048625712881    -0.011452929453
C                    -0.224647272576    -3.446182783985    -0.162805427652
C                    -4.191572642878     2.353599540210     4.371751588077
C                     0.164619007913    -2.363235063450    -1.176742116248
N                    -1.357320881288     0.783986764030     2.020606726319
N                    -2.337880071870     1.312415400617     2.775475027488
N                     0.856130376886    -0.211463769600     0.720147545015
O                    -4.482955141422     2.159485099467     2.975644970055
H                    -2.916848508227     0.715000105993    -0.976422707578
H                    -4.741300413482     1.710000981871     0.438831933807
H                     0.813634811567     0.295160553948    -1.841227383760
H                    -0.902756810639     0.913599577601    -1.983445013278
H                    -1.765597567315    -1.313099632043    -1.187482826093
H                    -0.099295679661    -3.081587882789     0.862110063492
H                     0.396594416463    -4.340646609843    -0.279710690813
H                    -1.271582668847    -3.748748929575    -0.283311868735
H                    -5.099893915932     2.785742123729     4.792885020736
H                    -3.345115000973     3.033303579169     4.499794862041
H                    -3.957017426633     1.401404666170     4.854573060304
H                     0.072173273239    -2.756869580103    -2.197661001799
H                     1.210491509422    -2.081381654734    -1.031359435499
H                     0.638745908065    -0.607864030943     1.634342685108
H                     1.232966903834     0.713789814211     0.926364543738
