29
0 1 C10H15N3O
C                    -2.773785761537     0.871468689465     0.073149160684
C                    -3.782361387563     1.406721558319     0.834857400100
C                    -1.542810479637     0.554205689328     0.705671288572
C                    -3.507820641678     1.596741532728     2.208220288529
C                    -0.215392270084     0.227480423861    -1.510630525526
C                    -0.694736788741    -1.130137558681    -1.071906438034
C                    -0.380590081447    -0.054619179261    -0.024701346598
C                    -0.205540726123    -3.449738330956    -0.186883033071
C                    -4.207202479181     2.312918893970     4.364419493858
C                     0.177193845970    -2.361911030319    -1.198087061135
N                    -1.363516546280     0.766039750680     2.009380332338
N                    -2.347167206002     1.286859284655     2.765475102237
N                     0.855837831849    -0.213863842255     0.707357569963
O                    -4.496771328671     2.122093702350     2.967491989688
H                    -2.921068394851     0.699435808287    -0.988527154721
H                    -4.751452926981     1.680050218510     0.428944649217
H                     0.812891629801     0.302183132416    -1.852086624009
H                    -0.906407080330     0.912372399774    -1.993679596871
H                    -1.758532405956    -1.321869447825    -1.206533554934
H                    -0.082114719117    -3.087049303817     0.838930545883
H                     0.420973192508    -4.340199550352    -0.306192972730
H                    -1.250688492983    -3.758172607303    -0.307998742336
H                    -5.117995226772     2.738907718041     4.786485781271
H                    -3.364343199975     2.996537441968     4.495303713887
H                    -3.968011670571     1.360294576748     4.844113407059
H                     0.086211878962    -2.753254892287    -2.220014812455
H                     1.221625609606    -2.074836706324    -1.052583431643
H                     0.640146904730    -0.615099328067     1.619964083027
H                     1.227554050690     0.712518264875     0.917759868288
