29
0 1 C10H15N3O
C                    -0.423580782007    -0.986789733644     2.823487545693
C                    -1.241846164047    -1.584271392382     3.752741613964
C                    -1.004378504605    -0.467726941006     1.639668832567
C                    -2.618205851814    -1.630268449220     3.445082439352
C                    -0.837900052642     0.839527251398    -0.602838138635
C                    -0.092175716710    -0.453693584721    -0.813969807200
C                    -0.155217349249     0.176916144353     0.579574222553
C                    -1.058287464548    -1.828096803796    -2.694494033503
C                    -4.838938244442    -2.249936111229     4.026149174477
C                    -0.819050453475    -1.731036490384    -1.181569154345
N                    -2.319618383292    -0.551337427135     1.425947132602
N                    -3.127485443727    -1.135512258148     2.324699061318
N                     1.088528751489     0.800785208827     0.989956970377
O                    -3.437393404521    -2.210447145608     4.352102830778
H                     0.645920122263    -0.916974384095     2.995292769543
H                    -0.874966831291    -2.007315048937     4.682920138947
H                    -0.381867853907     1.760204473648    -0.951412914167
H                    -1.921549610328     0.798116901535    -0.618740109611
H                     0.893663656997    -0.345580495079    -1.263145557360
H                    -1.666354710123    -0.987348920494    -3.045528504087
H                    -1.581227035889    -2.755149759460    -2.953370297851
H                    -0.113520518720    -1.809978358198    -3.250248317603
H                    -5.312282369789    -2.747062550528     4.873469496946
H                    -5.006766960851    -2.813718463416     3.104819455559
H                    -5.236112803173    -1.239458569391     3.900022702080
H                    -0.231247535880    -2.595854777005    -0.845144086481
H                    -1.777448586200    -1.777158057328    -0.657478384440
H                     1.762415127321     0.114248068591     1.323076262913
H                     0.929861060991     1.477102571847     1.735320328074
