30
1 1 C10H16N3O
C                    -2.132658778279    -1.841761905661    -0.018568182726
C                    -2.939728585619    -2.803978332424    -0.591646882021
C                    -1.382381094703    -1.031887072804    -0.884464398033
C                    -2.952776973779    -2.903004565633    -2.006166930185
C                    -0.684911984104     0.914667933472     0.764713680216
C                     0.453538715719    -0.073272956401     0.763313027516
C                    -0.441961419038     0.055255266143    -0.456598428934
C                     2.426121938114     0.611274683902     2.183536843997
C                    -4.518304560102    -4.712831288101    -1.994209133923
C                     1.894709382362     0.405651062169     0.757835969301
N                    -1.453591545883    -1.188478684686    -2.208002632651
N                    -2.215753782303    -2.098953021057    -2.787585364373
N                     0.115849443499     0.693525174016    -1.690490360991
O                    -3.679843785996    -3.781339504035    -2.700442027685
H                    -2.089426122023    -1.726596407831     1.060509072189
H                    -3.542275592120    -3.458035289858     0.027132963507
H                    -1.587299751848     0.712973611281     1.333257314940
H                    -0.425599968781     1.969099617067     0.697673309502
H                     0.293674312126    -0.997048103753     1.315213308700
H                     1.826187077328     1.350677304830     2.722697464297
H                     3.460800373078     0.962669767588     2.161248804776
H                     2.401464312137    -0.324653134512     2.749808588660
H                    -4.994752119286    -5.311394315178    -2.768394308319
H                    -5.283423780566    -4.186706366291    -1.414287421863
H                    -3.920586591988    -5.360903335951    -1.345130252345
H                     2.521802744747    -0.326652598852     0.233457448705
H                     1.977704620607     1.356160173411     0.212784654127
H                     1.136792157900     0.628024238016    -1.749817629895
H                    -0.160567939403     1.673543857703    -1.799750987290
H                    -0.334020788249     0.107718646241    -2.469779534254
