12
-1 1 BrC3H4N4
C                     0.084231793092     0.077978648871    -1.851350596718
C                     0.203211658466    -0.330465384157    -0.411858781818
C                    -0.384454472112     0.786298813348     0.436688639101
N                     0.484211610176     0.991228487962    -3.730433815266
N                     1.012675786305     0.803221889962    -2.501284983217
N                    -0.994415463005    -0.177292024218    -2.614087969389
N                    -0.708602633980     0.408663615111    -3.797410187289
Br                   -0.295089781788     0.379169272387     2.420162645998
H                     1.253053555274    -0.485533224968    -0.147166690587
H                    -0.345818175023    -1.259798786675    -0.235257291525
H                     0.164685086271     1.719423304905     0.327575203444
H                    -1.443720840415     0.939387277387     0.239947500271
