29
0 1 C10H15N3O
C                    -2.248958996093     1.074853542340    -0.500194878647
C                    -3.609954060590     0.866290452329    -0.501776541704
C                    -1.395829853049    -0.049349849559    -0.559456460784
C                    -4.041456265600    -0.474618103606    -0.563751786911
C                     0.822310132175     1.264123625015    -0.062011689642
C                     0.848514003378    -0.015151767028     0.748618220885
C                     0.107343888232     0.032383708504    -0.575699004921
C                     0.984861628851     0.405575405703     3.239231525424
C                    -5.804179458726    -2.070908523346    -0.620297732147
C                     0.123200154172    -0.101461332104     2.075802909826
N                    -1.884530960346    -1.290331428005    -0.631993463979
N                    -3.206536396131    -1.506754503545    -0.634998693109
N                     0.775648042462    -0.663859637172    -1.662044709912
O                    -5.374974359070    -0.698164999799    -0.555536284257
H                    -1.838049367687     2.078713691408    -0.464760093099
H                    -4.335929259598     1.672683225054    -0.463616752818
H                     0.236578202512     2.088549852188     0.335608753806
H                     1.718878120084     1.556319114384    -0.598760187922
H                     1.777172482698    -0.578787394250     0.692838222620
H                     1.905392898734    -0.181487542232     3.333186912719
H                     0.447022004205     0.338348055513     4.191139130323
H                     1.273970649803     1.451300944117     3.085664621685
H                    -6.893541886576    -2.027165973097    -0.599138385583
H                    -5.423866846058    -2.636487919006     0.234190904194
H                    -5.454464491516    -2.543244973573    -1.541833359209
H                    -0.806877922392     0.477399654821     2.032130951817
H                    -0.175363469624    -1.141755951264     2.256203162227
H                     0.480229821546    -0.261159716930    -2.552044666701
H                     0.449736265245    -1.630969132764    -1.663675157816
