29
0 1 C10H15N3O
C                     1.927997909812     0.562655342314    -1.766271913710
C                     3.257294063450     0.352217954249    -2.035617991506
C                     1.412349606668     0.125857862045    -0.517501211856
C                     4.012901683392    -0.295790407123    -1.032235689459
C                    -0.827763917177     1.438755067929    -0.713898470168
C                    -1.082433127448     0.042254906107    -1.214174805063
C                    -0.028789013004     0.284796189643    -0.126528752912
C                    -2.186419605645    -2.219031812869    -0.949154830341
C                     6.085270603545    -1.168855677150    -0.261378357078
C                    -2.365135402315    -0.696698983130    -0.894537265071
N                     2.194261429812    -0.477655776591     0.377485277041
N                     3.497821049809    -0.691994640061     0.121596477344
N                    -0.398603268406    -0.090561302876     1.219670654361
O                     5.323888019785    -0.509459702668    -1.289539821232
H                     1.292243022469     1.054458142456    -2.495920068236
H                     3.730576947118     0.658091647909    -2.963554080432
H                    -0.320004476762     2.155497220008    -1.352942320878
H                    -1.570359757439     1.868532943706    -0.048039294571
H                    -0.665179077045    -0.192824317287    -2.192521939652
H                    -1.840231974968    -2.545729518786    -1.936861157123
H                    -3.128156366345    -2.736809583318    -0.737715768026
H                    -1.448020569297    -2.550088594892    -0.211372333069
H                     7.097480946743    -1.240246514257    -0.660740566148
H                     5.679877753396    -2.163119927767    -0.056595513265
H                     6.074903360517    -0.585189083806     0.662785423309
H                    -2.706859322676    -0.401526506819     0.100709942799
H                    -3.137691076035    -0.385246835609    -1.609998300290
H                     0.050704405633     0.554017291657     1.870249779790
H                     0.020102780762    -0.997012987553     1.427004058245
