29
0 1 C10H15N3O
C                    -2.267976746610    -1.328512415730    -1.323674614169
C                    -3.630133826053    -1.492071661610    -1.412163288664
C                    -1.761690265669    -0.200858619081    -0.630644130885
C                    -4.425766880888    -0.503537982135    -0.794992231817
C                     0.209527441393     1.309149308290     0.143549049963
C                     0.339161612556     0.020525625104     0.915430768880
C                    -0.281378466878     0.017519358786    -0.483922330162
C                     0.236118453351     0.371861313940     3.410272453337
C                    -6.568194889613     0.367718486102    -0.243554853690
C                    -0.459974198531    -0.224129954227     2.179071853072
N                    -2.585701406237     0.690479547497    -0.074776295939
N                    -3.917189771722     0.539204478508    -0.152006741152
N                     0.592258679669    -0.531308456011    -1.503889532835
O                    -5.768449810344    -0.647320822589    -0.877763051298
H                    -1.596188494917    -2.051543092818    -1.775481428129
H                    -4.096247004113    -2.328741493656    -1.923556774196
H                    -0.553979212065     2.008416129126     0.466597184704
H                     1.102574236515     1.736202254814    -0.300537671755
H                     1.337312431656    -0.414211493113     0.917058443895
H                     1.234529606471    -0.058163835764     3.551799247298
H                    -0.341933273449     0.183014879956     4.321375991995
H                     0.353447613917     1.455597609063     3.302655456747
H                    -7.600915390065     0.067358464428    -0.423584877838
H                    -6.369097213536     1.348584123206    -0.682909085404
H                    -6.360113573118     0.411378108990     0.828646791143
H                    -1.457555517116     0.211691389885     2.077932509426
H                    -0.598345180694    -1.304583599067     2.320738773158
H                     0.311589315546    -0.220989107561    -2.432947646785
H                     0.587951706352    -1.549337213767    -1.495545117320
