29
0 1 C10H15N3O
C                     1.998609316514     0.540587922365    -1.756414104290
C                     3.326825805764     0.323714374141    -2.025998782798
C                     1.482518822309     0.110964396997    -0.505349620315
C                     4.080834093423    -0.323119488996    -1.020662324564
C                    -0.752445251640     1.431921389849    -0.705564463568
C                    -1.013060667474     0.034335837943    -1.199803484460
C                     0.042329599471     0.277249392355    -0.113954364656
C                    -2.125341469271    -2.221353519671    -0.921355151175
C                     6.150246802131    -1.202050423815    -0.248515106858
C                    -2.298486347564    -0.698068927676    -0.876023947438
N                     2.262841473372    -0.491939714161     0.391449819122
N                     3.565303151200    -0.712458324972     0.135305950717
N                    -0.327947236190    -0.091020141852     1.234069873186
O                     5.390725006531    -0.543014125791    -1.278286142874
H                     1.364135170315     1.031900005895    -2.487511997994
H                     3.800449638309     0.623859459907    -2.955628069463
H                    -0.242204202945     2.143872276211    -1.347977257489
H                    -1.492896918762     1.867535021322    -0.041114142919
H                    -0.597644655903    -0.206435887584    -2.177546399219
H                    -1.778891234403    -2.555159737145    -1.906589257280
H                    -3.069322549898    -2.734365514870    -0.708304167450
H                    -1.389310617359    -2.550748246036    -0.180491128003
H                     7.161363103196    -1.280758009002    -0.649271163409
H                     5.739751895197    -2.193129736721    -0.038580331307
H                     6.144703533263    -0.614201187338     0.673047518826
H                    -2.639537789526    -0.395625926915     0.117264754408
H                    -3.069640918784    -0.388193945206    -1.593682110560
H                     0.124929071372     0.555486001838     1.880247133240
H                     0.088043715837    -0.997840419623     1.445224518626
