30
1 1 C10H16N3O
C                    -0.475600584599     2.071845971358     1.607775353830
C                    -0.039150784340     3.147613910751     2.341119663003
C                     0.401201962436     1.563689637452     0.624147120639
C                     1.250235310912     3.666632241919     2.049955423600
C                    -1.234949471546    -0.213218272517    -0.513621337465
C                    -0.211194344314    -1.015802847905     0.254206973978
C                     0.129494780595     0.378129735507    -0.257708862379
C                    -1.216512360723    -2.591955947486     1.942266146694
C                     2.976677786384     5.252544337659     2.489245894751
C                    -0.354381336522    -1.340812430895     1.728493815054
N                     1.583284804974     2.126996809671     0.391858211634
N                     2.029438895052     3.173451363777     1.085315301710
N                     1.095089321210     0.443203424410    -1.405223833351
O                     1.666086322026     4.700482429880     2.776929508094
H                    -1.459701537085     1.648251690041     1.775670635440
H                    -0.640376064921     3.613024770108     3.115393453416
H                    -1.480596480256    -0.512371775442    -1.529393186169
H                    -2.066507150106     0.225351977868     0.029584937863
H                     0.250005433928    -1.819748673458    -0.321122622916
H                    -2.224891894841    -2.451413444304     1.539911122991
H                    -1.306494193386    -2.818029738944     3.007994451377
H                    -0.777094384322    -3.466731629385     1.452066383077
H                     3.095235627640     6.067811015325     3.200405534180
H                     3.012419738136     5.621959514068     1.462571826026
H                     3.746066398000     4.491983365020     2.635656708611
H                     0.643212190182    -1.490812114013     2.156486236339
H                    -0.795913471131    -0.496424739735     2.264901475584
H                     1.505833507652    -0.463839404129    -1.644489536412
H                     1.842293019660     1.111142832664    -1.040945459503
H                     0.678082216644     0.853461318163    -2.248111476456
