30
1 1 C10H16N3O
C                    -0.161899476267     2.150747600537     1.445190180317
C                     0.432157056516     3.127315445548     2.206105484725
C                     0.691900938652     1.252020495524     0.768591596652
C                     1.851218953303     3.161083471052     2.247567164777
C                    -1.138374254882    -0.061660411226    -0.664600966818
C                    -0.665009989051    -1.025413155851     0.398046113596
C                     0.244718704880     0.097964412677    -0.083079493840
C                    -2.519219470941    -1.936641998381     1.838935638972
C                     3.862469064522     4.161600590718     3.049067117387
C                    -1.255109302902    -1.068082614094     1.794343018451
N                     2.014896486165     1.369911536452     0.834871407420
N                     2.617073354374     2.310050981034     1.561821742442
N                     1.415302479004    -0.315242876719    -0.927167792410
O                     2.413642357246     4.103863001905     2.999280966509
H                    -1.241603187039     2.091115795440     1.362990882806
H                    -0.136494789655     3.867777045327     2.759213665809
H                    -1.225667163510    -0.412864430189    -1.689611201849
H                    -1.871317871072     0.692120642447    -0.393446425905
H                    -0.386508457580    -2.009243005560     0.017858122161
H                    -3.291372969982    -1.546804053043     1.167904613408
H                    -2.932016039445    -1.961136971159     2.850857691717
H                    -2.304120365032    -2.968175374430     1.541816764212
H                     4.083169643501     4.990675306304     3.718692801740
H                     4.266264360422     4.347282190434     2.051919602403
H                     4.263443650094     3.225272978921     3.441949149337
H                    -0.501142074104    -1.461299911558     2.485565742423
H                    -1.492839831124    -0.058178266426     2.139712392990
H                     2.238592160531     0.125508938467    -0.412472484504
H                     1.377354847846     0.079639423921    -1.873389033632
H                     1.531530040788    -1.330452564596    -0.994437614363
