8
0 1 C2H4O2
C                    -1.637587271674     0.547104739714     1.207331972218
C                    -1.033965781431     0.280254774946    -0.160616110404
O                    -2.504598770287    -0.117837202439     1.720576858307
O                    -1.128011938494     1.633441935536     1.868335274851
H                    -1.186196708508     1.139248598512    -0.823334677464
H                     0.044196552545     0.103968616062    -0.077787986322
H                    -1.507024817848    -0.597911176005    -0.598543812652
H                    -0.442203194814     2.060769662618     1.328226130859
