7
0 1 CClH3OS
C                    -0.806758942188    -0.780270654110    -0.068672951203
O                    -2.940678098872    -0.518261353752    -1.611473582852
S                    -1.488828604366    -0.803901390542    -1.766867582037
Cl                   -1.176066706207    -2.975865165984    -2.025794335183
H                     0.229277435583    -1.122987485547    -0.088375076023
H                    -1.424461308830    -1.428391582059     0.554830123728
H                    -0.870330376367     0.256912508887     0.272132619152
