7
0 1 CClH3OS
C                    -0.798268886522    -0.737149426699    -0.074050000217
O                    -2.944887883503    -0.540062179514    -1.608866162690
S                    -1.499875056928    -0.860563537802    -1.759925544340
Cl                   -0.413239817918     0.912541699439    -2.506662079857
H                     0.288793684253    -0.819736283015    -0.125895460085
H                    -1.227657420166    -1.564835168527     0.497351482492
H                    -1.100882007172     0.221132181204     0.350797473279
