8
0 1 Br2C2ClF3
C                     0.395791035497     0.353889979606     0.405764396052
C                    -0.278146734026     0.323685819738    -1.004781848767
F                     0.540213032062    -0.908103659510     0.849258661549
F                     1.611342346903     0.919236722506     0.320496161767
F                    -1.494094023448    -0.250826447078    -0.878320195525
Cl                   -0.457467676588     1.957530665510    -1.669019286716
Br                   -0.690576672683     1.341957718548     1.706316019322
Br                    0.809554500724    -0.796540646669    -2.206236588379
