20
0 1 C7H12O
C                     1.702130873182    -0.470413044528     1.520424431505
C                     0.187534217380    -0.130284577582     1.875197771921
C                     1.823932830036    -0.446930742303    -0.068577313005
C                    -0.452688820076    -0.385590255743     0.514703801200
C                     0.555596081282     0.328868539006    -0.412390176281
C                    -0.917278724492     0.230394645094    -0.800655507492
C                    -1.687237349924     1.526273120292    -0.890088138879
O                    -1.415860644543    -0.658197303431    -1.765417038510
H                     2.382547899056     0.259224335950     1.971682753286
H                     1.983735002389    -1.451606088864     1.916938174902
H                    -0.196279188293    -0.772113450909     2.675334103652
H                     0.083059236937     0.909785300017     2.197964246800
H                     2.744296027946     0.047242099687    -0.397709996107
H                     1.827911231932    -1.463447360305    -0.474597698533
H                    -0.376792414735    -1.460829393641     0.314989347917
H                     0.687174158470     1.349013741016    -0.044048705724
H                    -1.500162601241     2.014407251251    -1.851461443468
H                    -1.408770299641     2.205742109318    -0.081606322695
H                    -2.756525519664     1.309730201989    -0.809585214169
H                    -0.826777001679    -1.427706445740    -1.810148949055
