18
0 1 C4H10N2O2
C                    -0.739114833194     0.259913234719    -0.028377683558
C                     0.352332536991     1.653766399215     1.660907127079
C                    -0.904891627926    -3.425133627992    -1.310709814842
C                    -1.639185810192    -1.211942333414    -1.780141579609
N                     0.437967972634     0.690553727559     0.565889048997
N                    -0.541546140583    -0.460804705120    -1.209393064535
O                    -1.849654107498     0.495206949511     0.434448192751
O                    -1.923449636978    -2.451247684835    -1.150644794876
H                     0.031297196564     2.647936609750     1.324700477109
H                     1.332598600440     1.731250653693     2.138158167772
H                    -0.370821041504     1.292600132418     2.392681584430
H                    -1.292329505900    -4.360947588637    -0.902435690033
H                     0.010428881590    -3.160203809191    -0.760973201686
H                    -0.652588368963    -3.576039056116    -2.372573887612
H                    -2.542820599909    -0.614085239319    -1.675558795184
H                    -1.413033261290    -1.376840873896    -2.843216896680
H                     1.234403069617     0.797874898213    -0.050634342570
H                     0.386402336383    -0.838309207169    -1.357933880169
