18
-1 1 C6ClH4N2O4S
C                     1.882112805705    -1.134239332951    -0.216730463998
C                     2.776645249972    -1.751771013484     1.975397365634
C                     0.789660067613    -0.534767623936     0.404810908678
C                     1.676519569328    -1.158054191302     2.583688781260
C                     2.866954431657    -1.735738282819     0.575719595207
C                     0.685281228086    -0.548017623320     1.802085050380
N                    -1.791973892079    -1.136974089025     2.791324181287
N                     4.018957322803    -2.353332332177    -0.069170525950
O                     4.086416574322    -2.327745243472    -1.309635257014
O                     4.884872842494    -2.880068601836     0.649773479584
O                    -1.224800170151     1.226689036454     1.713587162910
O                    -0.362566967123     0.471877955216     3.985261000811
S                    -0.793503460527     0.132105830912     2.611159878421
Cl                   -2.488978766095    -1.618191762713     1.186776152262
H                     1.989115972607    -1.137883114930    -1.295236874289
H                     3.562289915619    -2.221468986138     2.555649083187
H                     0.016885843705    -0.043387281837    -0.176185451169
H                     1.569766094693    -1.147888215534     3.663799201761
