23
1 1 C5H13N2O2S
C                    -0.994295482656     0.749165559457    -0.891540693280
C                     1.358955811323     0.603599127214    -0.146567603775
C                     0.352397800416     1.493317567019    -0.896238474551
C                     0.826754654525     1.828246037062    -2.312222279798
C                    -3.560263209236    -0.322370936081     0.230669658491
N                    -1.212565402537     0.401010262700     0.530634622918
N                    -2.180996359460    -0.670379862422     0.720759855966
O                     0.278793139864    -1.712411823283     0.813727174157
O                     0.592664532131     0.203737835241     2.469824630735
S                     0.390737218506    -0.276368185296     1.116137021966
H                    -1.793767474733     1.407700742538    -1.236064199215
H                    -0.949097150025    -0.143414908832    -1.534500656436
H                     1.790531228000    -0.175807539264    -0.778519522052
H                     2.140932067084     1.156941098790     0.374945279347
H                     0.218110071321     2.417257759451    -0.326084188443
H                     0.959106007788     0.922557701094    -2.912544498302
H                     1.781006149335     2.360481246413    -2.283195332845
H                     0.102249187010     2.474285457035    -2.816303012539
H                    -3.543951295258    -0.252955649795    -0.854853784491
H                    -4.230245267982    -1.123492579903     0.545618730730
H                    -3.845624782395     0.626284372141     0.683069500183
H                    -2.227580808293    -0.827873784949     1.736981648177
H                    -1.833075191867    -1.558930730921     0.308952018038
