23
1 1 C5H13N2O2S
C                     0.256716517523    -0.211106987741    -1.525444852122
C                     0.750568963879    -1.183596585700     0.690534571344
C                     0.301038045850    -1.539282243502    -0.740447322577
C                    -1.040122028013    -2.284256798828    -0.767246359389
C                    -0.802989268952     2.460499358802    -2.392117248686
N                    -0.565179782198     0.688650451760    -0.683978250916
N                    -0.376492254838     2.097293314945    -0.995526237721
O                    -1.079910931276     0.474966593258     1.911304236811
O                     1.126974878163     1.486125683593     1.124389164851
S                     0.067758511816     0.469455916415     1.023925771006
H                     1.271029519909     0.187289467628    -1.679449385414
H                    -0.230006064977    -0.355175456887    -2.491480107394
H                     0.356884096015    -1.850358431782     1.458696444350
H                     1.832020017801    -1.072947408984     0.791969725051
H                     1.076462569150    -2.163110720084    -1.192619358773
H                    -1.841940344216    -1.701542713879    -0.305658911214
H                    -0.956666236258    -3.232549795288    -0.230167987911
H                    -1.330771097526    -2.510146283156    -1.796868193891
H                    -1.821001257082     2.100548072297    -2.533847093234
H                    -0.756349960317     3.547126236812    -2.475407212178
H                    -0.119390861438     2.000755114228    -3.102553328239
H                     0.599599457686     2.392973647917    -0.796271168467
H                    -0.968972358127     2.613623187753    -0.330577024673
