13
0 1 BrC3H5N4
C                    -0.000927584149     0.024823094399    -2.128337210253
C                     0.352191839354    -0.594392025843    -0.810332523518
C                     0.500317536633     0.471756546089     0.270200349734
N                    -0.169330733004     1.312286249627    -2.377873385706
N                    -0.479203852770     1.411746577485    -3.706233853492
N                    -0.505198497887     0.246899158410    -4.266587020935
N                    -0.205460449940    -0.644713296592    -3.286902650243
Br                    0.971571226786    -0.383689430035     1.990036090065
H                     1.286357603492    -1.157933861696    -0.905606673340
H                    -0.422742560013    -1.311582909613    -0.519696577599
H                     1.299298293505     1.175454358214     0.048228369589
H                    -0.425477623010     1.016105521394     0.441886148871
H                    -0.167396939556    -1.635560480623    -3.495644120600
