22
0 1 C5H12N2O2S
C                     0.049843354934     0.527512604377     1.485437615633
C                    -1.012587879387     1.266979123454    -0.624787562650
C                    -1.217787032204     1.188116457593     0.907353037512
C                    -2.479324631692     0.393930178544     1.267187143015
C                     1.387169629866    -2.432701029037     1.641068770877
N                     0.360955389678    -0.577241815787     0.564121898744
N                     1.566047666978    -1.284207117268     0.754825040933
O                    -0.094143769091    -0.924650094244    -1.993790470081
O                     1.564469517658     0.861140732552    -1.274583791562
S                     0.328829528062     0.097190961974    -1.037800945640
H                     0.885900627317     1.242267928868     1.551745515128
H                    -0.138431752875     0.112609053308     2.478807816061
H                    -1.894166986305     0.969648604269    -1.193491876741
H                    -0.661653021121     2.242992607711    -0.961592346912
H                    -1.300274667793     2.202830343467     1.307247932238
H                    -2.410062727421    -0.632938579769     0.896257958856
H                    -3.370129932694     0.857697492861     0.831458690671
H                    -2.617172950817     0.357141620105     2.352811902266
H                     0.686787949066    -3.128768481500     1.175084336341
H                     1.013759546525    -2.172429991148     2.644170058658
H                     2.355698595701    -2.930265293686     1.746868123126
H                     2.303149298391    -0.654823322454     1.076965885470
