23
1 1 C5H13N2O2S
C                    -1.268882335751     0.015366025589    -0.894710549440
C                     1.177259466348    -0.321141424582    -0.855039419857
C                     0.049652343128     0.450535433961    -1.568509171816
C                     0.259106572854     1.970095221654    -1.526547461633
C                    -3.382647571987    -0.120857624247     1.229328080246
N                    -1.027176871744     0.211938976026     0.553194378760
N                    -1.946374921979    -0.537610406245     1.395925755835
O                     0.337303205694    -1.905383802178     1.204931455053
O                     1.307443621970     0.377062977752     1.806254622835
S                     0.632470257938    -0.502914653715     0.871049459403
H                    -2.091864861657     0.654679677300    -1.218523768592
H                    -1.502164356918    -1.033890786437    -1.131133073308
H                     1.307960151845    -1.340413272525    -1.223952872769
H                     2.131548119982     0.206565303163    -0.832510800801
H                     0.015157508601     0.113552539233    -2.607812996609
H                     0.319393864470     2.347480182572    -0.502113923926
H                    -0.563878175596     2.482830790553    -2.031929536387
H                     1.184477046618     2.238517334873    -2.042603072477
H                    -3.725061608224    -0.415530541395     0.239743221992
H                    -3.962744145364    -0.635878836521     1.996209312652
H                    -3.433627022767     0.959154311084     1.359669295664
H                    -1.661870081433    -0.340551369498     2.365423375261
H                    -1.818937037327    -1.560545340551     1.264045835965
