17
1 1 C4H12N
C                    -0.604672176887    -0.046593206716     0.920821793464
C                     1.327024104825     0.769300863451     2.214576828685
C                     1.002447875637    -1.649923858276     1.878606191752
C                    -0.517899121368    -0.396557395225     3.358096501133
N                     0.301752186371    -0.330980305333     2.093031226439
H                    -1.341396340904    -0.846095261350     0.841126054504
H                    -1.106091090048     0.907377268537     1.084679754588
H                    -0.004280980133    -0.000948010389     0.012107722750
H                     1.976682446032     0.555404286293     3.063416953394
H                     1.913798884018     0.809062429419     1.296748982293
H                     0.811859252688     1.717472937627     2.369134510915
H                     1.654200647325    -1.846900687344     2.729903413253
H                     0.254329901844    -2.438031055365     1.791733164074
H                     1.591730505007    -1.592722632900     0.963296530368
H                     0.144892366312    -0.601996291777     4.198836965371
H                    -1.019914994049     0.559973922011     3.504138769524
H                    -1.255165295143    -1.193621578076     3.261173657377
