18
0 1 C5H7N5O
C                     0.369569018807    -0.639224400683    -0.978867892590
C                    -0.572519231980     0.808274955520     2.218816554163
C                    -0.654876996898     0.080282749948     4.266889149372
C                    -1.468692570109     1.602105352312    -0.022181552890
C                    -0.334771447289     0.900811184789     0.734495491861
N                     0.767667124065    -0.752391746532    -2.072387864697
N                    -0.277439880275    -0.231322689627     2.936502541423
N                    -1.075339067722     1.878463758414     2.937544655396
N                    -1.317656048914     1.343985964836     4.225490420240
N                    -0.148433662540    -0.475373033107     0.247751170761
O                    -0.467069491240    -0.565959731197     5.274432472370
H                    -2.422922363361     1.097353411197     0.153257266277
H                    -1.545025366727     2.654511657759     0.270296390106
H                    -1.260056263139     1.577825950455    -1.094517830989
H                     0.589569803259     1.482430836014     0.601988375286
H                    -1.876619184243     2.367180132474     2.543383760880
H                    -1.084435428178     1.978749608012     4.984776885443
H                     0.161642031554    -1.128347733185     0.966705368249
