17
-1 1 C5H6N5O
C                     0.881485754766    -4.735926116189     0.570330242822
C                     0.217590980228    -1.109000882068     0.564217251186
C                    -0.123562492392     0.702612072783     1.856157621333
C                    -1.261261427194    -2.906965896272    -0.452573724033
C                     0.142822071603    -2.463156897337    -0.035114035365
N                     0.984273898182    -5.851035761767     0.221002352867
N                     0.936117591945     0.918337253542     1.013999300844
N                     1.124246731513    -0.208525100379     0.242458768934
N                    -0.594777753696    -0.609226879224     1.560767647897
N                     0.685474192556    -3.471438295542     0.968570067028
O                    -0.639107669482     1.436833773647     2.727802193427
H                    -1.940625162872    -2.907850045556     0.405653824474
H                    -1.650335997363    -2.213190839486    -1.202942526632
H                    -1.250281153534    -3.915757558893    -0.879302967565
H                     0.807635503071    -2.447620386726    -0.905733104359
H                    -1.351118855586    -1.064422385288     2.049586825213
H                     1.458303075178    -3.079600028597     1.500253667347
