17
-1 1 C5H6N5O
C                     0.660819672849    -4.386205142818     1.114540012770
C                    -0.331034069738    -0.958788030494     0.466588056397
C                    -0.756592598652     1.158871717175     0.491554885910
C                    -1.016012719586    -2.814150361980    -1.106116712809
C                    -0.021878905860    -2.345293146078    -0.042396439844
N                     1.226034142613    -5.414841617603     1.073868627132
N                    -0.534504818657     0.089122369496    -0.359291767655
N                    -0.391665739299    -0.730012466577     1.775967048763
N                    -0.679284967651     0.624307710047     1.787189976633
N                    -0.031424151468    -3.250810901771     1.135599201964
O                    -0.986867369232     2.359304483299     0.239139351418
H                    -2.024411394044    -2.854966234164    -0.683086624358
H                    -1.014414329238    -2.101081165419    -1.934393804877
H                    -0.745563243805    -3.809097436411    -1.478624951181
H                     0.985404421791    -2.338752013035    -0.480533733310
H                    -0.744859776789     1.133920239093     2.655488053214
H                    -0.047224737383    -2.720036560195     2.010753822372
