17
-1 1 C5H6N5O
C                    -0.794044496599    -4.117608321743    -1.868781582910
C                    -0.320193673490    -0.950976766310    -0.040608910977
C                    -1.350412224090     0.879477659546     0.768751021870
C                     0.180140690978    -3.280386425572     0.840890787608
C                     0.043889915519    -2.350676047792    -0.367362667345
N                    -0.610501603623    -5.189899117061    -2.307563535930
N                    -0.342065520126     1.245845140353    -0.084347026721
N                     0.263912316860     0.105978663946    -0.567956734863
N                    -1.332559631830    -0.544755235233     0.803810022805
N                    -1.015812701184    -2.925856792428    -1.297276000461
O                    -2.162347477209     1.571811914957     1.421533350156
H                    -0.757303273062    -3.326919422505     1.404029988397
H                     0.443457672893    -4.298162781674     0.533152913762
H                     0.963977973030    -2.900192973028     1.501812348238
H                     0.992941217630    -2.299198360793    -0.912192341937
H                    -1.990807752149    -1.108218043762     1.320941757841
H                    -1.364129513411    -2.217572453249    -1.938006746408
