8
1 1 CH5N2
C                     0.813637341034    -1.173926343143     1.456734816180
N                     0.740133298237    -0.637987284908     0.255838416735
N                    -0.033886280735    -0.957043809490     2.441340757186
H                     1.641673212963    -1.850714943761     1.651191819790
H                     0.003603077667     0.006337669697    -0.022282096560
H                     1.441316603135    -0.863738870946    -0.443340486599
H                    -0.839208686717    -0.341105735543     2.357321931463
H                     0.102315365912    -1.415712416714     3.337189990149
