17
-1 1 C5H6N5O
C                    -0.992998659817    -3.426640396598    -1.648069758916
C                    -0.047056384945    -0.335174198773     0.018519964099
C                    -1.292993702676     1.343425195746     0.582515373614
C                     0.525262939760    -2.673281838010     0.766401490930
C                     0.297723179259    -1.734670032784    -0.427328415013
N                    -1.092026840397    -4.535315760597    -2.023752203285
N                    -1.347308123490     0.038748567326     0.128926042096
N                     0.877414762734     0.548284249258     0.355859937025
N                     0.073423226853     1.601778246711     0.792139749689
N                    -0.842663690017    -2.160469056864    -1.275620174546
O                    -2.208552654152     2.162714419271     0.798066391570
H                    -0.355057418618    -2.669817219560     1.416888317269
H                     0.717083524297    -3.699842604603     0.433228539824
H                     1.385435489688    -2.319515251946     1.342508417396
H                     1.202149184157    -1.706161303781    -1.044172868977
H                     0.468868233372     2.528971217373     0.858044654279
H                    -1.678576205973    -1.609424338812    -1.042492196864
