17
-1 1 C5H6N5O
C                    -1.847094001071    -3.719639081720    -1.076803687363
C                    -0.325623714310    -0.777906607839     0.466821328295
C                     0.204893500060     1.092766143295     1.397658461943
C                     0.161141466955    -3.184331871658     1.012591615378
C                    -0.207115038908    -2.177558533252    -0.083413452286
N                    -2.131287018654    -4.807194411729    -1.418778384805
N                     0.729418946709    -0.122160447956     0.996887509053
N                    -1.503599390262    -0.164320229168     0.477082704131
N                    -1.183916907249     1.010652281445     1.151461013681
N                    -1.499597768070    -2.484462519066    -0.741302398865
O                     0.764857478832     2.088805603534     1.896296247231
H                    -0.611964376436    -3.196594495161     1.787935671991
H                     0.268309525475    -4.195355370916     0.603666369762
H                     1.105386723430    -2.875147666535     1.468130451617
H                     0.577449697763    -2.186402841311    -0.849348753969
H                    -1.772543616175     1.821911748807     1.021514760258
H                    -2.230616777327    -1.819777344279    -0.477625772243
