17
-1 1 C5H6N5O
C                    -0.246452919143    -3.928357273571    -2.004045913840
C                    -0.105644139281    -1.234629356376     0.404338088841
C                    -1.242129109810     0.610911520166     0.406873763156
C                     0.665907939276    -3.582387843826     0.992831630322
C                     0.422624876293    -2.553679676112    -0.109040811377
N                     0.046312451747    -4.765171264073    -2.774120836547
N                    -0.993830806856    -0.526142231197    -0.338956519345
N                     0.285982403862    -0.708370531564     1.553962164379
N                    -0.392622581656     0.507720154299     1.520814625613
N                    -0.593491054016    -3.030344483708    -1.084415213609
O                    -2.019169216426     1.563259929681     0.194249296263
H                    -0.269441588990    -3.798641180484     1.516819401174
H                     1.062758593928    -4.513564862704     0.572294490419
H                     1.381859368308    -3.179743894658     1.714461718211
H                     1.366679724224    -2.373719736194    -0.643724624226
H                    -0.493234182162     1.045377503855     2.369790632447
H                    -1.173335119904    -2.233457130714    -1.384871355031
