18
-1 1 C5H7N2O3S
C                     2.675878801631    -3.951465124710    -0.987886104156
C                     4.376927068199    -2.640489747577    -0.358077041368
C                     3.912156026424    -3.963260812826    -0.169026191519
C                     1.688586212051     0.800174697079     1.102240923666
C                     1.903205782864    -0.546458222749     0.418204426215
N                     2.422110621396    -2.813615273860    -1.595814906390
N                     3.530611991927    -2.002888153479    -1.304503767393
O                     4.368672755688    -4.943485314697     0.496644014895
O                     4.230410170184     0.338264260301    -0.565768052628
O                     2.271465807756     0.112345131466    -2.157065034497
S                     3.030803211557    -0.392817885089    -1.006434352777
H                     1.991159469782    -4.787103653874    -1.116147367381
H                     5.304515403030    -2.167498197130    -0.070663260777
H                     2.637375047558     1.207749678249     1.460404157418
H                     1.238751869101     1.524540588813     0.416114186816
H                     1.015898872401     0.676758617437     1.959008006572
H                     0.984523960873    -0.969075944566     0.008880683700
H                     2.378030540754    -1.282551575781     1.074468745839
