16
0 1 C5FH9O
C                    -0.610591606083     1.066559811418    -3.019556957555
C                     0.164861434577     0.747152013712    -1.809840989086
C                    -0.434412589709     0.027330754073    -0.626786270266
C                     0.102729664042     0.572561640242     0.703363118123
C                    -0.491869799268    -0.120044368834     1.914911542604
O                    -0.310550117339     2.089888612321    -2.049906818673
F                    -0.158429571337    -1.490108250114     1.904344101253
H                    -0.104175000466     1.176444009558    -3.978215937602
H                    -1.660163347342     0.776628560207    -3.070907700233
H                     1.247529262701     0.652920602292    -1.919701681174
H                    -1.525133002700     0.135688932140    -0.657833869815
H                    -0.210529459608    -1.042778275356    -0.706362325216
H                     1.194504801299     0.473543868577     0.739550838173
H                    -0.124292481771     1.643221733651     0.777846673228
H                    -1.585901887912    -0.059427066434     1.920356977189
H                    -0.102255865227     0.296110337081     2.849352468308
