14
0 1 C4Cl2H8
C                    -0.130694827506    -1.136406276587    -1.618690390524
C                    -0.236460788672    -0.731346644036    -0.142305716356
C                    -0.451865298625     1.787624621627    -0.684143936300
C                     0.244704231883     0.695744252190     0.115832102362
Cl                   -2.255394706451     1.757744529883    -0.537803608845
Cl                    0.132408250396     1.064623403835     1.901393096912
H                     0.884752095807    -0.993331596950    -2.006429529084
H                    -0.381907076522    -2.194922890742    -1.735222308580
H                    -0.821451129393    -0.565667450748    -2.246662980844
H                    -1.270153895670    -0.824089014287     0.201293867336
H                     0.367928172571    -1.403670677071     0.473886658990
H                    -0.224591566091     1.664580860487    -1.744724479163
H                    -0.124969632805     2.774839067608    -0.358885110844
H                     1.311940850370     0.777754188927    -0.115149537845
