14
0 1 C4Cl2H8
C                    -0.134121398115    -1.114954760701    -1.617822756861
C                    -0.203316647224    -0.708292139252    -0.143027656949
C                     0.096832788379     1.086077401561     1.598591636800
C                     0.300034836986     0.710140153074     0.138362414785
Cl                    0.415316071163     2.834701429924     1.930042571178
Cl                    2.068961156502     0.850747782095    -0.291162678331
H                     0.897982245755    -1.134449030005    -1.976016428886
H                    -0.562998402608    -2.112011378915    -1.757406861905
H                    -0.697295461098    -0.415434278769    -2.245468813092
H                    -1.246977563709    -0.752589156090     0.195706592092
H                     0.361263010974    -1.417123488914     0.473506265244
H                     0.754244919832     0.508535563463     2.249470218321
H                    -0.943564554662     0.905875770535     1.877748390201
H                    -0.206387451994     1.431551463228    -0.506541237434
