35
1 1 C17H15O3
C                     3.082170575691    -0.135941598383     4.665282911228
C                     3.006520401798    -0.832729261029     5.889860186647
C                     2.002740089696    -0.130611111671     3.797160891905
C                    -0.345534525455    -0.883545614101     3.318160857029
C                    -3.756644745693    -3.164785018015     4.814591838167
C                     1.855016302508    -1.525772359898     6.252099487241
C                    -4.783991229316    -3.903841520005     5.360051762816
C                    -1.453468443389    -1.582882302204     3.726710640831
C                    -2.401430291334    -3.650231537297     6.782956142332
C                     0.819327086154    -0.825549882061     4.137555953038
C                    -2.535399699170    -3.020524812090     5.517353117756
C                     0.775911387501    -1.512693745136     5.369990631601
C                    -4.660925475572    -4.533936036855     6.617071522452
C                    -3.428681136760    -4.395087287047     7.339801097706
C                    -1.455168901437    -2.258732317079     4.971679622476
C                    -5.882228101867    -5.949160271717     8.238152931409
C                    -2.141702797817    -4.901071808888     9.301277774176
O                    -0.352548737632    -2.199886435392     5.739901281924
O                    -5.744869922550    -5.208209892116     6.999243981344
O                    -3.352704555781    -5.016005865772     8.544965808782
H                     3.991705638388     0.396727287568     4.406353850870
H                     3.859047997356    -0.829805329394     6.562340845553
H                     2.051328844840     0.402927111893     2.852052822572
H                    -0.351196282392    -0.367359905040     2.361667090208
H                    -3.910287835074    -2.704563736061     3.845893339829
H                     1.783641224298    -2.065661535507     7.190813714716
H                    -5.726952765379    -4.026118826164     4.837258477223
H                    -2.335436807771    -1.624889569252     3.102494171519
H                    -1.469907989618    -3.541092187832     7.320867195318
H                    -6.889772425010    -6.359654210257     8.188407574802
H                    -5.782868344138    -5.284198268456     9.095781922280
H                    -5.145644704279    -6.750662579166     8.289428202833
H                    -2.313568178532    -5.468397568720    10.215115111098
H                    -1.935793499766    -3.854614582436     9.552141464746
H                    -1.296901724003    -5.333788031087     8.754021800906
