16
0 1 C5FH9O
C                     1.881997005856    -0.217650364494    -2.331381458217
C                     0.529179195085     0.198364892642    -1.925009788981
C                    -0.104999543228    -0.326017321611    -0.654965062570
C                     0.191095389504     0.525223182677     0.591024828918
C                    -0.484339374722     1.885092724289     0.620142561513
O                     0.719026139129    -0.767656185972    -2.980382640704
F                     0.023707467128     2.724141710616    -0.393527606981
H                     2.490537113604     0.440539906172    -2.950728893929
H                     2.434322327467    -0.921515624164    -1.707466122488
H                     0.176746013880     1.165455173811    -2.278645377227
H                    -1.190339621015    -0.403291069395    -0.800986936471
H                     0.262050951897    -1.345366170129    -0.493224381800
H                    -0.155891573933    -0.015692919519     1.481159445431
H                     1.272711647259     0.662240095610     0.708833556331
H                    -0.304537785792     2.397067082354     1.570794502976
H                    -1.563988257443     1.802774991627     0.452182540363
