19
1 1 C7H10NO
C                     1.320880447369     1.616993451503     3.291187906128
C                     0.007904182410     1.886792055191     3.366387654962
C                    -3.986855702794     1.402961267394     0.701269989417
C                    -2.652694817767     1.212745042324     0.810240330264
C                    -1.960349005125     1.623134346654     1.997266947392
C                     1.664422662960     0.964331500449     1.980363370958
C                     0.308250170304     0.876372532342     1.242633166979
N                    -0.674026623668     1.478863456641     2.189254069289
O                    -0.792142771290     2.446733956689     4.290059697426
H                     2.044788611399     1.836666770514     4.067320092819
H                    -4.526272550700     1.098118336855    -0.190511759958
H                    -4.567217071156     1.865158608180     1.496486497119
H                    -2.097894158626     0.748461224590     0.000168400064
H                    -2.508898372166     2.088466506777     2.811939792975
H                     2.389292013892     1.557683476111     1.414902537452
H                     2.103559318172    -0.026785272912     2.129079651172
H                     0.292731249543     1.449844410304     0.314320388546
H                     0.004830017364    -0.150924748384     1.034188104653
H                    -0.283089042795     2.709575811553     5.076582881911
