18
0 1 C7H9NO
C                     0.137423834333     0.120228146788     0.227360316509
C                    -0.873754824975    -1.855911807935    -2.684865939910
C                     0.512977609263     0.506063845505     1.424675392762
C                    -0.242626137102    -0.232002534173    -0.985255426656
C                    -1.004313521643    -3.373142538555    -2.764197276859
C                    -0.179327885366    -3.893780236656    -1.575713168107
C                    -0.169290621371    -2.718177020893    -0.576278120585
N                    -0.376735141886    -1.551978628273    -1.429871558422
O                    -1.168725965232    -1.035252893869    -3.543696200092
H                     1.562202252607     0.676939437290     1.667646220024
H                    -0.209905707846     0.676758352849     2.223019575909
H                    -0.486225944396     0.506629477733    -1.746037103234
H                    -2.068383025108    -3.619995378083    -2.670836398993
H                    -0.668862896571    -3.731630406650    -3.739159614089
H                    -0.587628230906    -4.803179734736    -1.129467884921
H                     0.844095765260    -4.107845219169    -1.896990257851
H                    -0.976120557974    -2.789499435387     0.165136617310
H                     0.775542286396    -2.626739585768    -0.032787015624
