16
0 1 C5FH9O
C                    -0.263363792930     1.292535472254    -2.665802944741
C                     0.396020243314     0.253545137332    -1.854857321799
C                    -0.248357369715    -0.332096519991    -0.620809086669
C                     0.165672446278     0.422038791365     0.650058801353
C                    -0.410313441485    -0.183059389051     1.918128908294
O                    -0.201809053102    -0.072341763263    -3.123129865483
F                     0.084168477039    -1.488564809527     2.100433235551
H                    -1.258867911044     1.636300397366    -2.382508713483
H                     0.333883763102     2.000073539272    -3.240556082441
H                     1.487856156573     0.224507104117    -1.872843107962
H                    -1.337519615118    -0.302851816615    -0.742545896517
H                     0.035991871565    -1.386091918143    -0.531502838675
H                     1.258587314828     0.445996077763     0.739773013225
H                    -0.169687266149     1.466251438593     0.594343717256
H                    -1.502440836136    -0.258898828465     1.871276653459
H                    -0.125399970296     0.393691233866     2.803935347360
