18
-1 1 C5H9N2O2
C                     2.106011414239    -0.689013620788     1.760090451834
C                     0.118860821668     0.361727776735    -0.542733963500
C                    -2.226205937107     0.495361432215     0.374888921975
C                    -1.106980721608    -1.752733607997     0.047199622632
C                    -0.901621460934    -0.279976078476     0.435012666082
N                     1.364692759050     0.706188818592    -0.164631390660
N                     1.679262019639     0.462995900947     1.194901435494
O                     2.054958645957    -1.836393085352     1.303310779705
O                    -0.280562973045     0.539440877843    -1.723650605302
H                     2.502731436204    -0.485872025385     2.783839493527
H                    -2.595886511762     0.513606240039    -0.654882659094
H                    -2.092368516651     1.535476824345     0.699128303410
H                    -2.985933540308     0.031411906308     1.020541449906
H                    -1.453023558816    -1.814220861856    -0.990936752566
H                    -0.164553432273    -2.300438704549     0.138893295946
H                    -1.855342736054    -2.232479655737     0.695179577772
H                    -0.523307741094    -0.244664697054     1.460898049092
H                     1.934086993222     1.297407548623     1.716290051932
