18
-1 1 C5H9N2O2
C                     2.219562921576    -2.352070091068    -2.305999658519
C                     0.249384296302    -0.677835646522     0.076329928478
C                    -1.776361598000     0.740757774972     0.496950710131
C                    -2.070991043240    -1.774522114514     0.361810899891
C                    -1.128277024526    -0.631103541372     0.752775643431
N                     0.405393389910    -1.637694043760    -0.834410504653
N                     1.694195310564    -1.550059418949    -1.365348748287
O                     1.707176805432    -3.315001415077    -2.895573091934
O                     1.116056581738     0.193195550975     0.427248927304
H                     3.264736866833    -2.030277132921    -2.522312548780
H                    -2.027910345512     0.850437837711    -0.565961149392
H                    -1.078481189705     1.538733666655     0.765642613767
H                    -2.701483194430     0.861575536299     1.078007629019
H                    -2.294339243974    -1.743881706245    -0.709164059250
H                    -1.613988566338    -2.747441145072     0.562337174517
H                    -3.016046141935    -1.702628019296     0.920324049380
H                    -0.925573143344    -0.697280612385     1.832222481002
H                     2.253681061306    -0.788502857597    -0.972145442269
