22
0 1 C7H12O3
C                     0.864663888586    -0.955899717776    -0.288388165173
C                     0.018969023880     0.245769925993    -0.701499297777
C                    -0.754509471395     0.490668545832     0.619020891039
C                     1.008424747019     1.383357029774    -1.039959179018
C                    -0.841230985053    -0.080842058509    -1.924453930656
C                    -1.942523945956    -0.458358684008     0.815024721970
C                    -1.157750554711     1.933062363264     0.903259433738
O                     1.402791263923    -1.791155043263    -0.973747637401
O                     0.965573775701    -1.001066606698     1.079674066265
O                     0.271225567078     0.175689231115     1.611087743872
H                     0.465378653633     2.269583593210    -1.381208490922
H                     1.672791108412     1.061093416124    -1.846439784577
H                     1.622428069706     1.658316725256    -0.178558588705
H                    -1.472649328656     0.776157592490    -2.181925134258
H                    -1.482297361646    -0.949678075475    -1.763933003356
H                    -0.196265376767    -0.299786610540    -2.779155465572
H                    -2.300527474026    -0.372853394208     1.844247667982
H                    -1.665207713228    -1.501384333834     0.639600285839
H                    -2.764120567331    -0.202176365587     0.140555124058
H                    -1.653039293852     2.000064379215     1.875991183189
H                    -1.864279009820     2.272386808940     0.139498013203
H                    -0.296616690879     2.602347844881     0.908897113111
