16
0 1 C5H9NO
C                    -1.540573314186    -0.789539706257    -0.240603309588
C                     0.670918088563    -0.552840618503    -1.317954526028
C                    -0.485774503317    -0.193995576958     0.673754795919
C                     0.323334160315     0.605757752184    -0.408233923216
C                     0.298303591407     1.064332763835     1.016811168621
N                    -0.699809523816    -1.204936238815    -1.436162946280
O                     1.396515132245     0.872624640039     1.862969486728
H                    -2.042984392283    -1.665051648285     0.185690712147
H                    -2.304750731509    -0.070492976842    -0.551201137545
H                     0.997693662907    -0.232597556904    -2.312158646238
H                     1.431198057520    -1.214980980084    -0.888549175132
H                     0.166160273581    -1.005871858569     1.006013424056
H                    -0.368973371647     1.257520107272    -0.945495241839
H                    -0.195796583968     2.030219389104     1.138560059585
H                    -0.607992091828    -2.217230033259    -1.472839530821
H                     1.066887467363     0.842268246471     2.776381857307
