16
0 1 C5H9NO
C                     0.554700914529     0.668172293852    -1.356592669945
C                    -0.732038971872    -1.355466998891    -0.763306746183
C                     0.844912740788     0.189727482290     0.052322476082
C                    -0.597805382897    -0.358047433903     0.366933038951
C                     0.276733814998     0.114924378234     1.471274759101
N                    -0.157510887948    -0.555829040965    -1.918079329682
O                    -0.259265019094     1.192920936865     2.187826846601
H                    -0.062436100348     1.574220380363    -1.380409877843
H                     1.464761042730     0.843982674798    -1.938776746875
H                    -0.150298969874    -2.269296562199    -0.609583348868
H                    -1.769037843613    -1.635806860241    -0.978897854604
H                     1.529984573452    -0.658436507406    -0.021136581361
H                    -1.291494961689     0.466042924493     0.186303467607
H                     0.858416612940    -0.579752655816     2.080114412901
H                    -0.894921770524    -0.275445289657    -2.560321246989
H                     0.485962641691     1.741505753487     2.482197397183
