17
1 1 C5H10NO
C                    -1.193643009753    -0.842543328661    -0.691492487930
C                    -0.060972417351     1.337509952342    -0.793922187871
C                    -0.894168428555    -0.409252917437     0.727645007113
C                    -0.185256649249     0.942484673311     0.661166252172
C                     0.567440035651    -0.278393743365     1.104058314003
N                    -0.271933828441     0.026069523693    -1.541538416999
O                     1.558011539522    -0.764321872118     0.217232309206
H                    -0.971179662109    -1.887664980626    -0.915708216491
H                    -2.225495024567    -0.619847174794    -0.968763057957
H                    -0.850721175065     2.030698834240    -1.088686451589
H                     0.912455856312     1.738061630070    -1.082027396697
H                    -1.642303674692    -0.627661518789     1.482382792015
H                    -0.395203707002     1.735406954384     1.370631672551
H                     0.820947548484    -0.342316440084     2.158552509302
H                     0.641073086560    -0.447376246013    -1.582484519695
H                    -0.623897603000     0.164686970142    -2.493699952875
H                     1.939289704804    -1.583118696248     0.575031929421
