21
-1 1 C7H10NO3
C                     1.668926193861     5.605193259120    -2.522901448931
C                    -0.641425825505     5.452883071881    -1.233901160908
C                     0.067952788645     3.673740838143    -3.046406906506
C                     0.478875762900     4.775757660552    -2.094936978786
C                     0.785642025053     3.285947660006    -1.782862751704
C                     0.012581135266     2.607978946582    -0.663540834361
C                     2.223797619870     2.801537042156    -1.880493682194
N                     2.100176118928     6.497486251890    -1.580850013002
O                    -0.268814429327     6.375666863938    -0.438184115066
O                     2.242844157628     5.464054066299    -3.616890436091
O                    -1.803023948338     5.005571597158    -1.385022720880
H                    -1.002819072283     3.502569573883    -3.091826599256
H                     0.621519607618     3.618111501921    -3.979638556448
H                     0.490490123152     2.800066294643     0.306345894361
H                     0.004373131053     1.520068686834    -0.823615765815
H                    -1.015928278779     2.968193080699    -0.615278057670
H                     2.768142673972     3.012046535908    -0.950320930534
H                     2.761310731594     3.274793911473    -2.704527302210
H                     2.240430194071     1.713685155946    -2.037156246156
H                     2.716712417127     7.219076889618    -1.935960878518
H                     1.356845039849     6.725761785677    -0.889779363977
