22
0 1 C7H11NO3
C                    -1.504212886569     1.104801326433     0.750077490545
C                    -0.286910750027    -1.094581797931     1.499594026787
C                    -0.386357255776    -0.461560047379    -0.961772404750
C                    -0.516300582850    -0.023667593625     0.489618293114
C                     0.728754892811     0.357655329465    -0.405546110453
C                     2.065904676560    -0.296972530802    -0.104172063532
C                     0.860266399506     1.815234098628    -0.814407182748
N                    -1.459918505033     1.713096493925     1.974851064249
O                    -2.244552315205     1.513693477306    -0.143399107600
O                     0.039884948927    -2.241000446016     1.253196819421
O                    -0.442332213509    -0.689749177111     2.800699074168
H                    -0.216993099940    -1.522384096427    -1.111873150132
H                    -1.090496068313     0.016039096667    -1.634188006610
H                     2.581139993933     0.223868212595     0.711212932866
H                     2.701367664462    -0.227034115801    -0.994276575154
H                     1.971691643464    -1.351295907697     0.157386303758
H                     1.332750945267     2.401933041435    -0.018824103409
H                    -0.099762075287     2.270315233622    -1.059846087229
H                     1.501031822436     1.877020395821    -1.701342049881
H                    -2.207495776135     2.371656262578     2.157816577263
H                    -1.044907917290     1.233570530986     2.762934220817
H                    -0.265582474221    -1.481253670725     3.345078609456
