22
0 1 C7H11NO3
C                    -1.738246868553     0.290914928144     0.165027850226
C                    -0.219719299218    -1.689375850284     0.678983172596
C                    -0.120327743230    -0.675815983488    -1.696104386144
C                    -0.549528202003    -0.529615882702    -0.249750100632
C                     0.685599623430     0.238316025763    -0.818772021594
C                     2.073542026652    -0.184778431803    -0.369489938565
C                     0.548217181338     1.740277072797    -1.003848713549
N                    -2.640199536211     0.636014686895    -0.795009154904
O                    -1.882443657881     0.659046516435     1.341574054487
O                     0.285435890806    -2.718692111406     0.276368846768
O                    -0.471193506829    -1.490429312511     1.982441947291
H                     0.296204107283    -1.644866464047    -1.950695939660
H                    -0.728159621367    -0.218079151496    -2.472015366178
H                     2.324009130654     0.272049929921     0.594296054264
H                     2.808247279068     0.162042205944    -1.104832246257
H                     2.171938623649    -1.266536456133    -0.275801711676
H                     0.738684024735     2.265466917309    -0.061878315818
H                    -0.440841992274     2.034538268908    -1.361771759057
H                     1.286841514884     2.084583055148    -1.736169953837
H                    -3.487930399651     1.091595698557    -0.476976069631
H                    -2.673107299491     0.134198419858    -1.671363610552
H                    -0.915650938350    -0.610471361145     2.090814825901
