22
0 1 C7H11NO3
C                    -1.363678950766     0.849113190734     0.308366790378
C                    -0.681660952159    -1.396493764069     1.083528815322
C                    -0.125017449258    -0.788573804386    -1.385425885122
C                    -0.457010869652    -0.348783059683     0.045765367179
C                     0.922253059066    -0.067356945689    -0.589291683593
C                     2.161624324800    -0.797588004788    -0.101324920802
C                     1.204641629987     1.380555375117    -0.966452463876
N                    -2.570375582241     0.809830546016    -0.351746811903
O                    -1.028552584322     1.785408983105     1.018947351185
O                    -1.394608512046    -1.252076672976     2.059703820339
O                    -0.061971133500    -2.586445196558     0.830047232172
H                    -0.015167351297    -1.856407837485    -1.544818246767
H                    -0.620460771645    -0.247187110189    -2.186801052453
H                     2.541617420268    -0.331214333955     0.814357942809
H                     2.945369164884    -0.722385610068    -0.863529565484
H                     1.980900062486    -1.852715471747     0.098586344069
H                     1.524962046710     1.956478841136    -0.094366430986
H                     0.331945831488     1.881886725326    -1.390535789605
H                     2.004325795666     1.401704048177    -1.715615710829
H                    -3.271012125369     1.466847800143    -0.026502628781
H                    -2.911486577806    -0.081523400626    -0.689258936760
H                    -0.299360432382    -3.165789142356     1.579399316013
