5
0 1 CH4
C                    -0.000024664950    -0.000023151503    -0.000019928814
H                    -0.056796309557     1.088356954107    -0.086036578428
H                     0.620044335639    -0.397519068970    -0.807925084716
H                    -1.005267194229    -0.424058115726    -0.069759542520
H                     0.442015569742    -0.266858219933     0.963618497659
