22
0 1 C7H11NO3
C                    -0.347126978435    -1.451657630724     1.336879861037
C                    -1.669175356951     0.670359960067     0.744039372192
C                    -0.436201568521    -0.668495901592    -1.120850673262
C                    -0.641688741910    -0.331740394311     0.348063315175
C                     0.594186821505     0.198058456703    -0.474843459013
C                     1.957718211206    -0.380388427887    -0.136167964518
C                     0.649942964461     1.679244551499    -0.811691598765
N                    -0.398755004680    -1.126149488717     2.659225563060
O                    -0.012840606728    -2.569836742255     0.944362220514
O                    -1.890707156908     1.055168509943     1.886148543952
O                    -2.388682925631     1.164790003349    -0.296655633029
H                    -0.186201611577    -1.708681325035    -1.301062935458
H                    -1.126714649978    -0.214859774933    -1.822777234011
H                     2.392840903813     0.132260721082     0.728933738833
H                     2.628654164791    -0.225775753561    -0.988958074307
H                     1.917298518124    -1.448846678424     0.075337546580
H                     1.014351351858     2.260952268395     0.042577264989
H                    -0.316060783599     2.080771709206    -1.120400835590
H                     1.353018040845     1.829558904554    -1.638613113448
H                    -0.325550497351    -1.897315754753     3.311165144888
H                    -0.865758597481    -0.271057362810     2.944933757875
H                    -2.996674049065     1.823276507417     0.092148575211
