22
0 1 C7H11NO3
C                    -0.094413458964    -1.385477739197     1.460063049788
C                    -1.410074986054     0.825687399343     0.948447616750
C                    -0.370654641730    -0.513539981761    -0.947530166344
C                    -0.424552848792    -0.215716020702     0.543526670962
C                     0.758840913867     0.277656260837    -0.379675541516
C                     2.109962293628    -0.388097846624    -0.179063413180
C                     0.867990788667     1.761144943262    -0.687430079152
N                     0.137696371180    -1.108456369302     2.779713731654
O                     0.052221175688    -2.519785171963     1.006866595306
O                    -2.111236113134     1.469087563854     0.189392867664
O                    -1.467451760677     1.057642614490     2.298891972480
H                    -0.199523981238    -1.557572264228    -1.185793046840
H                    -1.107689570357     0.005948740322    -1.550417518459
H                     2.651077858590     0.072114894409     0.655094763904
H                     2.710625111752    -0.248887965120    -1.085072880338
H                     2.026087885657    -1.458988190329     0.008514503654
H                     1.373532749023     2.293153109131     0.126821043945
H                    -0.100883364754     2.229239381966    -0.863750750974
H                     1.473131694851     1.890135380932    -1.591938831491
H                     0.231702432486    -1.918072053495     3.381159377501
H                    -0.215203644868    -0.252105410187     3.186380475394
H                    -2.144670037315     1.751388831119     2.417906181454
