22
0 1 C7H11NO3
C                    -0.708473985708    -1.475676730312     0.673292676044
C                    -1.652926833111     0.787188249112    -0.020670153984
C                    -0.219576553666    -0.502274449833    -1.741034955106
C                    -0.660753102356    -0.332236788994    -0.300797413097
C                     0.748376466276     0.134794834325    -0.786193544125
C                     1.949419939944    -0.668473988364    -0.315787617031
C                     1.025634722349     1.625139383230    -0.882294655050
N                    -0.674377753915    -2.742080278297     0.173468687120
O                    -0.756429146395    -1.271670041296     1.896575462294
O                    -2.136450163656     1.461295868644    -0.908693977856
O                    -1.925540474347     1.023762286999     1.272261021114
H                     0.016452548113    -1.499562731247    -2.102535016304
H                    -0.735681250987     0.134140374409    -2.452369185973
H                     2.260513702199    -0.349756100154     0.684736598901
H                     2.789090825912    -0.499124765908    -0.998921502206
H                     1.754670565925    -1.742710287821    -0.283915183672
H                     1.305628665848     2.030238905159     0.096381442552
H                     0.170011858159     2.187035425040    -1.257578634271
H                     1.867075055199     1.788655776340    -1.564966166345
H                    -0.820802167629    -3.494404263687     0.836780737006
H                    -0.900989924975    -2.916057674053    -0.795729761971
H                    -1.464090733957     0.342039913241     1.825297826776
