20
0 1 C4Cl3H7NO4P
C                    -1.934864799053    -0.814521564402     0.206870516703
C                     2.206437262960     1.885880859660    -1.177680686116
C                     1.399060511670    -1.681774018566     0.689839576454
C                    -3.062773394530    -0.428500812415     1.234241326602
N                    -0.958272839437     0.141035267709     0.071026440388
O                    -1.933031565151    -1.890237274004    -0.348367258690
O                     0.048310497892     0.158195669718    -2.475485615074
O                     1.182848170371     1.242923367761    -0.374444921128
O                     1.110899210060    -1.317194511134    -0.678241139144
P                     0.346640733372     0.033123884544    -1.040679770209
Cl                   -3.712586382485     1.215464166504     0.855635389815
Cl                   -4.371116337294    -1.617288361963     1.188447235684
Cl                   -2.301042225866    -0.405759924505     2.878328688334
H                     2.540987085542     2.747892697277    -0.600976297412
H                     1.788953528481     2.202363709710    -2.135378294049
H                     3.041267145845     1.199248091811    -1.341490158732
H                     2.110228660269    -2.505884602115     0.636680042569
H                     0.484425371310    -2.014979217731     1.185286597791
H                     1.840882831187    -0.840694108314     1.231092208897
H                    -1.076817165507     1.035212665817     0.537740869595
