20
0 1 C4Cl3H7NO4P
C                    -1.087006964833     0.140689672656     1.508470201897
C                     1.273218736613     1.959034857024    -1.018045088165
C                     1.679210133813    -2.369346864438    -0.991136686300
C                    -2.393251259573     0.629925248936     2.239698929375
N                    -1.221828088682     0.054709197596     0.140385263465
O                    -0.072001978576    -0.080823939481     2.126404326990
O                    -0.525193591087    -0.190084803909    -2.346692724548
O                     1.268884965761     0.572409258372    -0.603265740280
O                     0.470590011970    -1.768300197041    -0.464235826653
P                     0.006072419620    -0.337576790312    -0.975566990986
Cl                   -3.813112044611    -0.353911681164     1.705102721813
Cl                   -2.202147466735     0.500713059556     3.994258600924
Cl                   -2.653830469103     2.358945145514     1.768883318576
H                     2.258239721889     2.346551608861    -0.759267843457
H                     0.503790172118     2.513500488781    -0.472596514367
H                     1.102174829432     2.034167040512    -2.094137788904
H                     1.744377942175    -3.354307497053    -0.530227791478
H                     2.544550623088    -1.764356339833    -0.712536357444
H                     1.610455186602    -2.468199643940    -2.077507389622
H                    -2.133563184466     0.220016045923    -0.275844791993
