20
0 1 C4Cl3H7NO4P
C                    -1.305786529994     0.467529653159     1.152087252576
C                     2.551500979451     0.337031044562    -1.402940878196
C                     1.355236314669    -1.952127406349     1.155238460531
C                    -2.672345411310     1.163380312302     1.502198853981
N                    -1.176366336927     0.127467814915    -0.167861408977
O                    -0.470455389288     0.259231792057     2.006905328189
O                    -0.157812810006    -0.935619382185    -2.307883767519
O                     1.333062694146     0.432994140779    -0.622979766295
O                     0.521253422245    -1.918109212319    -0.031530346751
P                     0.168213100151    -0.635768831163    -0.901933040475
Cl                   -4.011484827286     0.011221869516     1.120098961159
Cl                   -2.719976842546     1.597841686857     3.218619633851
Cl                   -2.849380906292     2.648337270983     0.487209213863
H                     3.143385758379     1.212910272617    -1.138774588026
H                     2.315986719472     0.342142430742    -2.469183336749
H                     3.100454330958    -0.573784187768    -1.145528206885
H                     2.077910188731    -2.755505435338     1.001243166674
H                     0.717679907014    -2.165315298802     2.012583177405
H                     1.860109686079    -0.998539012918     1.308536838586
H                    -1.929633765907     0.345432399545    -0.814263299465
