19
-1 1 C4Cl3H6NO4P
C                     0.898433882629    -0.376872966090    -1.234693111646
C                     0.515593051752     3.441661038805     2.031598869423
C                    -0.199714447991    -0.676111349040     2.260511506113
C                     1.625235116679    -0.482038861467    -2.655712741858
N                     0.919313098653     0.869782095859    -0.800941813530
O                     0.431941464429    -1.431147468179    -0.778473065584
O                    -1.318082380534     1.520150809845     0.597504138186
O                     0.991073841214     2.686378460672     0.916918836363
O                     0.655266174986     0.399362314905     1.841170835883
P                     0.164183516236     1.320804155891     0.567544870948
Cl                    3.260353411533     0.295075229414    -2.626141387974
Cl                    0.605773622208     0.353634836814    -3.904372168328
Cl                    1.839177277161    -2.200364367081    -3.169105839900
H                     1.113999087825     4.356631254175     2.069823641271
H                     0.647693146383     2.882224935468     2.966090712559
H                    -0.542950307019     3.695176076538     1.909405697149
H                     0.238895755273    -1.076148391348     3.180333493322
H                    -0.235117863914    -1.450871141095     1.490065942396
H                    -1.210747303102    -0.304991920382     2.459159058763
