19
-1 1 C4Cl3H6NO4P
C                    -0.169317863414     0.899127538700    -1.884089594802
C                     1.790633126364     2.670445210031     1.766614481869
C                    -1.018306136575    -0.961171365274     1.947101265327
C                    -0.461277937716    -0.181316787329    -3.034851845852
N                    -0.175250977133     0.301505669168    -0.701772744809
O                     0.036512671900     2.056631470372    -2.255542426269
O                    -1.045821795749     2.098334730404     1.145127561527
O                     1.502726734707     1.678544264837     0.777762131877
O                     0.126238737342    -0.118432177544     1.796261862643
P                    -0.022364992170     1.102453160770     0.702499522082
Cl                    0.919840291449    -1.358720274547    -3.125743408225
Cl                   -0.638205385295     0.596509210946    -4.652102334602
Cl                   -1.985285719163    -1.105295345109    -2.690837937570
H                     2.773314439271     3.082918525344     1.519839119176
H                     1.824757118794     2.221854290649     2.767605262764
H                     1.037326871652     3.463483190409     1.752717155878
H                    -0.765500217472    -1.710327156120     2.703846092387
H                    -1.252809197114    -1.457533455718     0.998745328529
H                    -1.887834931179    -0.382614819290     2.282033116812
