19
-1 1 C4Cl3H6NO4P
C                    -0.832492808776    -1.804022473984    -0.914009515311
C                     2.055761630040     0.873188774696    -0.103864108855
C                    -1.269852920840    -0.603499620731     2.501203828600
C                    -0.352252472479    -2.637734676390    -2.194510328313
N                    -0.319446231847    -0.590243371764    -0.948891495886
O                    -1.551331216998    -2.408976358358    -0.106048287792
O                    -1.779465989647     1.347105422159     0.265739412307
O                     0.770629336379     1.484333524426     0.052534602058
O                    -0.180734755899    -0.143376908617     1.685001740254
P                    -0.537074508484     0.528189660159     0.226122274674
Cl                    1.442398204311    -2.933808230363    -2.061369490278
Cl                   -0.674947714813    -1.742897838808    -3.732674489162
Cl                   -1.169905559444    -4.241588880007    -2.298755069043
H                     2.764411366083     1.681517685125    -0.308453374353
H                     2.042666023398     0.161813802477    -0.935081854558
H                     2.350109717049     0.353865124153     0.815892249797
H                    -0.830146140685    -0.907381697750     3.456387119810
H                    -1.764731325388    -1.454489797739     2.026144020776
H                    -1.989869277533     0.205284170428     2.663963524757
