43
0 1 C12H24N5PS
C                     0.267934682798    -6.492862497219     0.064829627082
C                     1.027663270269    -5.404284526958     0.541378698330
C                    -0.850119590536    -5.956331501356    -0.564069832999
C                     0.362656583283    -4.219626607569     0.203454677808
C                     0.783237872441    -2.848831392801     0.496490950387
C                    -1.834105801527    -3.738568856526    -1.056183948093
C                    -2.403560203148    -0.052960864885    -0.489205323219
C                    -0.901854642872     1.660519552398    -1.375185231865
C                     0.166782506605    -0.516457838441     3.009498706392
C                    -0.100305111649     1.739118206456     2.047274892314
C                     1.926468561214    -0.206933700462    -1.752992021104
C                     2.720202928218     0.727189766542     0.371236958916
N                    -0.123645610257    -1.886162096180     0.217010118279
N                    -0.800497553387    -4.590953124437    -0.482952713467
N                    -1.019557709471     0.366483338866    -0.709598847121
N                     0.022024233797     0.304232148910     1.806078798415
N                     1.564344483666     0.314606001362    -0.428052551691
P                     0.173953233525    -0.303507779394     0.264704611563
S                     2.333278685519    -2.583984723615     1.159746944531
H                     0.497100885332    -7.546491244357     0.159112580362
H                     1.964634975399    -5.432498895845     1.078976234985
H                    -1.673723629785    -6.446142706022    -1.067600221440
H                    -2.429179000152    -3.265930785872    -0.271906951530
H                    -1.393271170108    -2.952014662256    -1.667781128462
H                    -2.483133368791    -4.365184848149    -1.672918782998
H                    -2.423035183943    -1.026706057488    -0.003451553065
H                    -2.923490952247    -0.134563901390    -1.451446547227
H                    -2.945813583781     0.670515633419     0.137656629972
H                     0.144051043340     1.957806552049    -1.443672886376
H                    -1.460164249638     2.444975267980    -0.841847534713
H                    -1.311940702201     1.589376243223    -2.390547846665
H                     0.085287131203    -1.571775862114     2.759266049061
H                    -0.633094194912    -0.255265958120     3.713544664204
H                     1.138840301252    -0.355161978743     3.491438918643
H                    -0.146039199163     2.290562119922     1.107794104023
H                     0.757597633177     2.120176361021     2.617832019866
H                    -1.013752529635     1.953040919676     2.617244066942
H                     1.027759728691    -0.462621841452    -2.317639779118
H                     2.554046009620    -1.102031242488    -1.660898654952
H                     2.474494815415     0.563314543658    -2.307925133301
H                     2.419409457491     0.935928659806     1.396873993770
H                     3.148592031323     1.638882628693    -0.064725670219
H                     3.475942704877    -0.063887125427     0.402021499182
