43
0 1 C12H24N5PS
C                    -0.367415383979    -6.376341205041     1.441483156370
C                     0.505378942025    -5.274573201757     1.558052937055
C                    -1.452212816995    -5.949680717504     0.683456074719
C                    -0.053345153375    -4.193028250631     0.866704972713
C                     0.503510401418    -2.847549148793     0.720003719941
C                    -2.241797625026    -3.902948517586    -0.463830196446
C                    -1.706674166458     1.535250198913    -0.874478876985
C                    -1.850320405108    -0.553839583366    -2.138256277227
C                    -0.614357305199     0.326721667062     2.117862015074
C                     1.652799269653     0.989572337921     1.457798293037
C                     1.613557704962     1.119896894841    -1.985163082344
C                     2.458050570092    -1.170762620146    -1.632869143539
N                    -0.150802090399    -2.034263271387    -0.138545774688
N                    -1.269229359582    -4.639281191012     0.333268642221
N                    -1.271005839229     0.147163986492    -0.992769753631
N                     0.337387985175     0.521546401207     1.015615926639
N                     1.397890887157    -0.192620832774    -1.382915410225
P                     0.143437890998    -0.461178373024    -0.323028332930
S                     1.899708747018    -2.429935077967     1.608657047731
H                    -0.235376430483    -7.367095624308     1.856829348300
H                     1.450682208955    -5.227864607950     2.079524322101
H                    -2.342386354492    -6.481258387129     0.372335562556
H                    -2.486211963049    -2.950215830164     0.004935482383
H                    -1.852680837098    -3.699701711171    -1.463692999074
H                    -3.142928607478    -4.515788793433    -0.545250142928
H                    -1.181403315498     2.028906918494    -0.057597499730
H                    -2.783940010739     1.566910834385    -0.667264130507
H                    -1.526800164919     2.097422069052    -1.803479554041
H                    -1.494510771668    -1.582133929209    -2.162910796933
H                    -1.583561538196    -0.060494993671    -3.084650506479
H                    -2.943651275738    -0.567279652622    -2.051415079559
H                    -1.585316729044     0.014023979265     1.728698262669
H                    -0.746853822354     1.273975280104     2.653341625779
H                    -0.250137638270    -0.436535193585     2.816557356273
H                     2.364686014444     0.959494709616     0.634101578984
H                     2.044417525880     0.354785495616     2.258857234651
H                     1.563132599061     2.025436516137     1.809330576499
H                     0.805564705643     1.804930531494    -1.726989522997
H                     1.654304244348     1.032733909803    -3.078531831479
H                     2.556234231471     1.567236976883    -1.641215892726
H                     2.149239651865    -2.157391526252    -1.295034807971
H                     3.383389187389    -0.905498636521    -1.106807368445
H                     2.654800101673    -1.209447358117    -2.711451924685
