43
0 1 C12H24N5PS
C                    -1.397716745521    -5.254640831932     3.494832368050
C                    -0.301385096140    -4.385488896171     3.316379556578
C                    -2.391014268750    -4.831807914910     2.618464000333
C                    -0.636012168011    -3.448414800542     2.331579973755
C                     0.195649594414    -2.356680261761     1.823370817380
C                    -2.757005277015    -3.072077711046     0.916052372182
C                    -1.047076051574     1.766304981994    -1.025948841941
C                    -1.695195503118    -0.510781698468    -1.636799490852
C                     2.177599555069     1.182001418041     1.482776563361
C                    -0.158856987770     1.253596485801     2.225018352319
C                     2.064427520710     0.341207755618    -1.848467977948
C                     2.377042212353    -1.894911834980    -0.855125490530
N                    -0.296498589109    -1.696513350168     0.751410477355
N                    -1.939435514293    -3.747960735995     1.915178491340
N                    -0.940084859953     0.342942472599    -0.720006857962
N                     0.778252065306     0.910078093768     1.146850271478
N                     1.579042116104    -0.669050616895    -0.912642587074
P                     0.329786973681    -0.345104606014     0.137565436863
S                     1.681556537316    -2.022343676428     2.593594110793
H                    -1.469784426739    -6.091039603536     4.178047185587
H                     0.650367750884    -4.402590522468     3.827840141781
H                    -3.387042473390    -5.219907465485     2.447923187218
H                    -2.767949455497    -1.996043775437     1.086846666473
H                    -2.372021177891    -3.252589328790    -0.089781867179
H                    -3.773113497212    -3.467507159754     0.989499263840
H                    -0.404036113865     2.345577060235    -0.364206490416
H                    -2.083859881572     2.096121483763    -0.882386509630
H                    -0.768179145350     1.980005874710    -2.069043411808
H                    -1.583628759578    -1.554409747756    -1.348803668247
H                    -1.349889354671    -0.387122922282    -2.674015436377
H                    -2.759890393502    -0.250884979370    -1.593575846484
H                     2.840013093802     0.753438199758     0.732053196156
H                     2.440470551722     0.739182229203     2.448568053151
H                     2.332893910186     2.268144400534     1.513044340913
H                    -1.186482596496     1.067100111934     1.907012466755
H                    -0.060344792012     2.318710987254     2.464589131333
H                     0.047351665828     0.659777585336     3.124099037669
H                     1.453100622893     1.242791697887    -1.801293062599
H                     2.030425355457    -0.044516381960    -2.875585994602
H                     3.101014761375     0.626788958486    -1.623133716933
H                     1.864342717465    -2.652307163709    -0.266537437999
H                     3.357933503969    -1.715343533823    -0.398127352882
H                     2.517946281156    -2.272599527595    -1.875495889195
