43
0 1 C12H24N5PS
C                    -0.831202172018    -6.349282051172     1.424371951966
C                     0.084865948478    -5.319228773198     1.722802609405
C                    -1.633410084359    -5.884214897704     0.388218001602
C                    -0.165131119159    -4.242731823405     0.863421920256
C                     0.540353592113    -2.961422639296     0.814066778924
C                    -1.891569773971    -3.858689749676    -1.011617463635
C                    -0.726061629522     1.476375106644    -1.498346422720
C                    -0.742126258989    -0.674047690213    -2.662943107050
C                    -0.588431754750     0.384065405152     1.725903492608
C                     1.827193508881     0.804866588608     1.673021633880
C                     2.710188503511     0.710327587642    -1.652831523004
C                     3.197197032208    -1.618258497251    -1.000839192791
N                     0.216856693930    -2.155115529777    -0.221326145818
N                    -1.237551875108    -4.619788313444     0.045010072547
N                    -0.418437475858     0.050879505080    -1.434531302436
N                     0.635054283175     0.422008495970     0.913332385444
N                     2.212983936488    -0.537443445544    -1.080283768372
P                     0.703531407059    -0.628219028147    -0.385737726848
S                     1.689566338205    -2.603933000507     2.024370329893
H                    -0.910064827295    -7.318001748348     1.900719665994
H                     0.861324409962    -5.317551016852     2.474353959025
H                    -2.459447423300    -6.358698415671    -0.125890782159
H                    -2.153926029368    -2.859636365926    -0.664872069595
H                    -1.237719783036    -3.756073535937    -1.880186764703
H                    -2.796611344260    -4.397298305852    -1.303233461623
H                    -0.388753126764     1.977780261198    -0.591847429600
H                    -1.810702807091     1.615128334674    -1.591635073189
H                    -0.250286273565     1.955788137873    -2.367398635036
H                    -0.501136877584    -1.728926724347    -2.545781420487
H                    -0.184118489612    -0.273097113411    -3.522084253552
H                    -1.814556169704    -0.584772325001    -2.874993173248
H                    -1.448714421163     0.131041417412     1.103118881576
H                    -0.761156926722     1.372822566747     2.166473450754
H                    -0.500455800055    -0.359361862469     2.527782526604
H                     2.725011513905     0.652735003968     1.075634512651
H                     1.924536651637     0.198224385509     2.578825642694
H                     1.755200134727     1.867396509187     1.938612807775
H                     1.936678538068     1.478697332040    -1.644659285878
H                     3.025790993187     0.551065281879    -2.691946018774
H                     3.570724095464     1.093941773970    -1.087736679040
H                     2.712487228147    -2.550872248132    -0.721128687190
H                     3.973824015467    -1.402213513537    -0.256873513818
H                     3.665155858668    -1.741930190653    -1.985356729453
