43
0 1 C12H24N5PS
C                    -1.073144273490    -6.280524235820    -0.445455401531
C                    -0.880766703480    -4.884744892736    -0.490467908293
C                    -0.156487501557    -6.777523513836     0.474858789277
C                     0.154140362498    -4.551757005485     0.395313728236
C                     0.680881669924    -3.202328770543     0.613017925928
C                     1.606932845501    -5.957142020923     2.003336594123
C                    -2.141231560219    -0.678304650992    -1.339538764850
C                    -0.641103434873     1.165611111751    -1.890866730296
C                    -0.367209057784    -0.560820711384     2.595034536453
C                     0.016618344625     1.574740445142     1.428577349718
C                     2.217461839337    -0.744461094678    -1.903395715148
C                     2.826635769088     0.224944781296     0.262280360801
N                    -0.097873695827    -2.256228536274     0.044495971595
N                     0.586414166091    -5.745408931873     0.979951234760
N                    -0.765377543611    -0.172258749887    -1.314546317868
N                    -0.020115528641     0.117566967513     1.346956389981
N                     1.740414013276    -0.168429226708    -0.639184056212
P                     0.255014683614    -0.697274690892    -0.080998017616
S                     2.120412855608    -2.891739478215     1.473116989016
H                    -1.785571816224    -6.868166368211    -1.010174900100
H                    -1.402579746500    -4.162640275767    -1.101341803959
H                     0.016853061177    -7.791265301173     0.811478753107
H                     2.600390407795    -5.721932233635     1.620545553530
H                     1.422841312176    -5.321935419379     2.870449747677
H                     1.561072649766    -7.007101548534     2.302843486881
H                    -2.162059403719    -1.699514504633    -0.963219752047
H                    -2.504940417677    -0.672533052742    -2.373422243349
H                    -2.815369237016    -0.054107401397    -0.732963285706
H                     0.397787748115     1.495344807870    -1.865958994003
H                    -1.264180665027     1.905813425280    -1.365816228727
H                    -0.966798365852     1.134709972579    -2.937295645767
H                    -0.523272402640    -1.622543552049     2.416992773963
H                    -1.292728965901    -0.132674839291     3.001821350502
H                     0.435845358174    -0.450072631448     3.333967369729
H                     0.418435729573     2.007489799127     0.511903945745
H                     0.663651702278     1.892655867862     2.256528913134
H                    -0.987319831623     1.987504638584     1.598818669699
H                     1.373523832387    -0.984807668650    -2.551393164886
H                     2.797319790834    -1.658500201579    -1.721672588514
H                     2.854554359666    -0.014787793651    -2.416563653579
H                     2.440630289155     0.431659947445     1.258609164555
H                     3.310974096040     1.127796674496    -0.132635987101
H                     3.563554617402    -0.578588635290     0.357578482351
