43
0 1 C12H24N5PS
C                     0.386564354569    -1.292225226239     4.418189989291
C                     0.040755821154    -1.464653037661     3.057586563556
C                     1.712005452227    -1.691072307753     4.545971061240
C                     1.155716535099    -1.976928338806     2.385974824213
C                     1.211746230923    -2.345879649055     0.964455015702
C                     3.545373940563    -2.558068428476     3.103039467467
C                    -1.383004364914     1.460754377480    -1.523173258401
C                    -2.027367076312    -0.887336195129    -1.231863833938
C                    -0.500972097092     1.629982465980     1.773990026829
C                     1.905984963365     1.254491186878     1.587719923845
C                     1.969038179593     1.584166557085    -1.688989127579
C                     2.076972359711    -0.811789052040    -2.183880348799
N                     0.389538489246    -1.643049661097     0.141373676535
N                     2.171958742966    -2.116265307509     3.326111093732
N                    -1.173607926632     0.217327714565    -0.781976626185
N                     0.593096007353     1.119878262511     0.943931602558
N                     1.616143455317     0.232075052618    -1.258789000138
P                     0.364423712369    -0.103138061846    -0.185598021467
S                     2.137482905901    -3.634220762194     0.406256208060
H                    -0.247362035007    -0.935655985373     5.219966267657
H                    -0.919361819999    -1.291636162044     2.591633070011
H                     2.362754792797    -1.697321377310     5.410513371361
H                     3.589000812674    -3.639147105686     2.964652520027
H                     3.956826891086    -2.087102954691     2.209113158653
H                     4.139305301770    -2.264242586456     3.971846908864
H                    -0.800487149763     2.272775187970    -1.084572183445
H                    -2.441016302763     1.739530604840    -1.467127237461
H                    -1.109166884959     1.365116746415    -2.584601045729
H                    -1.813636422669    -1.778604494440    -0.644377544235
H                    -1.866319591229    -1.121125982998    -2.294287813240
H                    -3.076830489705    -0.602552705739    -1.092479853132
H                    -1.462307486134     1.386881492875     1.322450299191
H                    -0.415185591939     2.721264685249     1.856802122133
H                    -0.463940651605     1.199190654916     2.781286345780
H                     2.681922079461     0.807624279222     0.965368899453
H                     1.912928789681     0.762259081141     2.567821095676
H                     2.140799280647     2.317653315471     1.724204918430
H                     1.609721138434     2.322313419325    -0.972250610948
H                     1.548871368485     1.817993376774    -2.677923579415
H                     3.060604725777     1.673522505402    -1.756104519747
H                     1.850284981985    -1.799973411055    -1.786048197425
H                     3.163574482811    -0.728884826983    -2.303706416159
H                     1.610726458715    -0.699192265059    -3.174052360919
