30
0 1 C12FH10NO4S2
C                     2.635952412836     0.125021693259     0.204566029327
C                     6.261498203679    -1.970014590923     0.713808986301
C                     2.484850368919    -1.226160679468     0.538658701008
C                     2.561356561035     1.114231592417     1.190587185990
C                     6.213297303680    -2.990332802131     1.671391085433
C                     5.914359128253    -0.659867005701     1.056549636004
C                     2.242230772448    -1.597072014480     1.861169167647
C                     2.339957769769     0.760021577017     2.523747322827
C                     5.813499703476    -2.707668455798     2.977996760582
C                     5.498253413564    -0.361828616744     2.354808032789
C                     2.181661344710    -0.592774421070     2.832325450707
C                     5.443365634535    -1.395448903666     3.291563378526
N                     3.337925424761    -1.757001115278     5.211002032167
O                     1.636534505364     0.155945131959     5.314668101742
O                     0.904523791555    -2.171595790901     4.528151124506
O                     5.806673296291    -1.724527817072     5.887923165218
O                     4.684676689780     0.432502582776     5.068954548998
F                     3.452486422295    -3.076950533555     4.698620048897
S                     1.824129832128    -1.044763589497     4.518790672871
S                     4.955601022731    -0.995511785891     4.962203201656
H                     2.810066114058     0.407259670929    -0.830280795118
H                     6.580610799878    -2.196762511813    -0.299915354064
H                     2.547185814470    -1.989986495577    -0.230733694225
H                     2.675078569269     2.161423279794     0.925095259281
H                     6.498100584298    -4.004140022230     1.405117214727
H                     5.963461915557     0.132335837787     0.315450234809
H                     2.094036234505    -2.636200872120     2.135684317230
H                     2.287795205748     1.504600074951     3.311071475230
H                     5.796073289375    -3.480953483885     3.737517418451
H                     5.228317070341     0.647272376416     2.642771549126
