30
0 1 C12FH10NO4S2
C                     1.428269601420    -1.788402808466     0.014414332126
C                     5.206769757505     0.011524421294     0.549697364081
C                     1.132098477753    -2.801719354289     0.934096050332
C                     1.769021095155    -0.507027673001     0.457605215036
C                     5.154843444650    -1.344828954717     0.892837325616
C                     5.084184687171     0.999137671096     1.532517580715
C                     1.178654742607    -2.541190575347     2.304098631724
C                     1.834703972863    -0.232492287682     1.824267238283
C                     4.995181842931    -1.723821783546     2.225635171859
C                     4.902565072891     0.638536041675     2.869965836285
C                     1.549649163733    -1.259789430822     2.725540691116
C                     4.864402908000    -0.720185783361     3.190534754627
N                     3.012181132131    -1.771166638864     5.143729178028
O                     1.931615090052     0.516722887431     4.668296358480
O                     0.462805783451    -1.538244479366     5.117762600470
O                     5.499320816916    -2.382260497621     5.148568561829
O                     4.763670745050     0.001769139959     5.737744535533
F                     2.939875871512    -3.082023173379     4.601042401260
S                     1.589629480977    -0.886230082465     4.471334012992
S                     4.708585821051    -1.186326113503     4.903639053916
H                     1.382996390213    -1.997312059749    -1.051039520089
H                     5.346156939833     0.298861502940    -0.488998642476
H                     0.853185055908    -3.791993227730     0.585697543728
H                     1.987122525012     0.280715143244    -0.257319689583
H                     5.247191704881    -2.107092787869     0.124914693627
H                     5.129489903015     2.050021877674     1.261189459093
H                     0.926602705234    -3.307433704705     3.028311077942
H                     2.093040471164     0.754434735697     2.189376399185
H                     4.981068803142    -2.769310107692     2.515231718484
H                     4.794099175512     1.382541895782     3.652067480587
