30
0 1 C12FH10NO4S2
C                    -1.647003969555    -3.176035727688     6.723201382910
C                     7.127756450283    -3.597075141433     8.003976457877
C                    -1.106974191561    -2.031012091273     7.321660442541
C                    -1.167007986126    -3.628203371713     5.488990235284
C                     6.522544195135    -2.419766980198     8.460574431719
C                     7.004450899885    -3.988947619684     6.666287088002
C                    -0.078167316422    -1.330724175383     6.689939959917
C                    -0.137972093674    -2.939531694655     4.842975961812
C                     5.785204402226    -1.626069724392     7.580617845631
C                     6.269945300740    -3.206667335740     5.772431408470
C                     0.386205979887    -1.801179802801     5.458807761099
C                     5.674258584641    -2.037409822583     6.249787818930
N                     3.086064335692    -1.643739231920     5.560443467677
O                     1.749435574533    -1.294162544008     3.240292065347
O                     1.703555016058     0.486572857100     5.082582206283
O                     4.716222329752     0.361054393443     5.587050312617
O                     5.073343454823    -1.387867514063     3.748549075218
F                     3.101844881665    -3.004019653178     5.120855371386
S                     1.689946234524    -0.900729792042     4.641347299930
S                     4.747372901894    -1.017085652840     5.118945068115
H                    -2.448301728844    -3.716265116618     7.220200597425
H                     7.701104707157    -4.210191748327     8.694116649321
H                    -1.488561914927    -1.682113771502     8.276882527732
H                    -1.593352168569    -4.514649390230     5.028339610692
H                     6.627451359898    -2.118505896737     9.498856669324
H                     7.480053288979    -4.901225137985     6.317990707308
H                     0.350328235971    -0.435172609894     7.128523026974
H                     0.249021984541    -3.265109492258     3.883064884983
H                     5.315043939273    -0.704135425803     7.907616097745
H                     6.162613895799    -3.484353532131     4.729086633035
