48
0 1 C24Cl2H16O4S2
C                     4.201398558787    -1.752251755104    -1.445142379739
C                     4.576158440898    -3.566243943612     0.099438001872
C                     2.895336777267    -1.920314801766     2.021804704147
C                     1.595378446318    -1.364784777675     0.067485895592
C                     5.217710512210    -2.231820914778    -2.270998761241
C                     5.600847867537    -4.053002917629    -0.713638580656
C                     1.877960241006    -1.442234027081     2.847230991579
C                     0.572910457984    -0.875963293146     0.882142236138
C                     9.419562914540    -4.511361749806     0.021391702986
C                    10.733081041088    -4.644398562185    -2.018157879400
C                    -0.935744109254     2.727001013838     1.170227315064
C                    -2.098441851747     3.064979999997     3.276191563738
C                    10.103389408015    -5.614836349595     0.538409305080
C                    11.412062806072    -5.752223633658    -1.507542358451
C                    -2.006086315329     3.305014698089     0.482574796271
C                    -3.173050517332     3.635255589397     2.591325607468
C                     3.860565465926    -2.407606450854    -0.247874426717
C                     2.774909723349    -1.892113757560     0.620434228116
C                     5.910823266675    -3.383125445467    -1.896442316016
C                     0.720300524855    -0.922438181129     2.267767467607
C                     9.742226670830    -4.033294310388    -1.248365267442
C                    -0.988409238163     2.615711717910     2.559377898651
C                    11.092031219562    -6.228301054550    -0.233097957458
C                    -3.117803712732     3.751009410574     1.199636423215
O                     6.903150691659    -3.953506441675    -2.706236729812
O                    -0.365326504566    -0.478936771740     3.036301034686
O                     9.066887084418    -2.887212017920    -1.683895537629
O                     0.140563617353     2.086728662358     3.195709800825
S                     8.212854540623    -2.991407391709    -3.131178227515
S                    -0.079621638275     0.729512187734     4.167478172580
Cl                   11.949151205458    -7.621122932039     0.407234439760
Cl                   -4.470019886058     4.470295851973     0.340128747410
H                     3.680037597149    -0.841017091625    -1.724522456507
H                     4.314921829228    -4.108476591082     1.003865705429
H                     3.807069549963    -2.300592509905     2.473875434657
H                     1.463464045262    -1.356953970978    -1.010854686436
H                     5.481881083424    -1.711541358522    -3.186801695162
H                     6.150150936387    -4.953755850590    -0.456372533767
H                     1.985937919491    -1.456678771022     3.927635581691
H                    -0.345475194106    -0.477256766391     0.461630517908
H                     8.643606695146    -4.012611112186     0.593926582736
H                    10.967538079085    -4.263132091719    -3.007283988638
H                    -0.057464570414     2.367692677644     0.642807819417
H                    -2.125799588566     2.965142469331     4.356913982975
H                     9.866438738832    -5.997137218630     1.526151155529
H                    12.187161028120    -6.238573500773    -2.091086341436
H                    -1.979189962828     3.401874061747    -0.598085624564
H                    -4.043154876821     3.992130324267     3.133001713974
