48
0 1 C24Cl2H16O4S2
C                     4.311965607199    -2.493631546137    -1.328036738335
C                     5.820715548045    -1.813862704136     0.430199540054
C                     3.271678227183    -1.564632451321     2.082586617702
C                     2.252878458231    -0.792494801138     0.035026128447
C                     5.377695054905    -3.043818758978    -2.037873519406
C                     6.897001969977    -2.354027776868    -0.274164834269
C                     2.116863119004    -1.233744508578     2.791317656532
C                     1.092517599343    -0.460465296149     0.731493390168
C                     5.348343468317    -6.606387831451    -2.640666434556
C                     7.514323561865    -7.000116102430    -3.669090000182
C                    -1.092043795235    -3.066970500075    -0.575547723740
C                     0.427799044057    -3.829701570246     1.155933550673
C                     4.713676738655    -7.183476757359    -3.742370444440
C                     6.880694728634    -7.569135991351    -4.776324298217
C                    -0.295685190818    -3.671704315523    -1.549407652546
C                     1.234617015963    -4.421205976594     0.181496559411
C                     4.511116190413    -1.881382869244    -0.078931257811
C                     3.346866910922    -1.384244745712     0.689518180675
C                     6.662422972509    -2.972935656821    -1.502633710645
C                     1.021077569922    -0.720180052371     2.098708107260
C                     6.740993342045    -6.524633312678    -2.609924403096
C                    -0.721946170729    -3.139875043302     0.769224841853
C                     5.486611366760    -7.657803072651    -4.804064862997
C                     0.868492363994    -4.337894602592    -1.162149080978
O                     7.696948655179    -3.532070547198    -2.265802844295
O                    -0.211046777958    -0.512131962914     2.741812043660
O                     7.294770440166    -5.983656614400    -1.442200879421
O                    -1.586754535276    -2.475047927311     1.652710013332
S                     8.515672463438    -4.836148866697    -1.581362425879
S                    -1.020353179238    -1.937784269725     3.142431323778
Cl                    4.694095335032    -8.372998677873    -6.199307985522
Cl                    1.890406663629    -5.078199174325    -2.390867199820
H                     3.308291950764    -2.589396581907    -1.727956102215
H                     6.004655546184    -1.316111311843     1.378412292082
H                     4.103135483784    -2.023295216429     2.610291218155
H                     2.300419982259    -0.608419047877    -1.034028499514
H                     5.223270513662    -3.547178254932    -2.987028190994
H                     7.905985485796    -2.305219984692     0.124577888207
H                     2.041980807703    -1.422980591618     3.858304392248
H                     0.226838209106    -0.048271963207     0.222819827872
H                     4.772737318121    -6.215056637985    -1.808217870286
H                     8.596129810114    -6.917758787313    -3.637706521274
H                    -1.992220819346    -2.524970738204    -0.848502419689
H                     0.718765551104    -3.876385578479     2.198650034006
H                     3.631456874915    -7.257334110612    -3.775883184274
H                     7.466231365448    -7.944585386077    -5.609451987352
H                    -0.572607879747    -3.615806686455    -2.597308024628
H                     2.145550942742    -4.935743759028     0.469384006524
