48
0 1 C24Cl2H16O4S2
C                     4.218875191805    -1.680390146075    -1.581662247103
C                     4.797105806961    -3.269119618327     0.141088841609
C                     3.221821875657    -1.424754314252     1.959530648444
C                     1.708852476820    -1.220137923130     0.089937439987
C                     5.241845872031    -2.174566157836    -2.391194342463
C                     5.819094233740    -3.774686111339    -0.660725500473
C                     2.270550389391    -0.854852747304     2.804689329633
C                     0.749685095059    -0.644407495666     0.924738281626
C                     8.797281942627    -2.873633404779     1.056220556572
C                     7.786750811012    -1.022949534304    -0.146973519738
C                    -0.841207103286     2.918925502320     0.850733309098
C                    -1.760207304746     3.628320499797     2.984684692674
C                     8.200221678285    -2.437102714492     2.240137019312
C                     7.175655597562    -0.594269399608     1.032620602378
C                    -1.988844827496     3.378821488459     0.199506534265
C                    -2.911399189482     4.081671251770     2.337975673025
C                     3.994209710241    -2.201101807275    -0.294929896185
C                     2.960260825438    -1.616227176443     0.590747492433
C                     6.051561380213    -3.202415693191    -1.910062204980
C                     1.038306304584    -0.467844815230     2.277607205625
C                     8.575556400308    -2.174229410627    -0.131268540271
C                    -0.734151875931     3.051285200708     2.234902541222
C                     7.381632487417    -1.306833485938     2.215262727019
C                    -3.015973877495     3.953753451014     0.950136644571
O                     7.153338405969    -3.663213995268    -2.652770331354
O                     0.015914618312     0.063939466345     3.076840554655
O                     9.186320745708    -2.725198276418    -1.268013199225
O                     0.464222083921     2.632722664399     2.824017035118
S                     8.428687668241    -2.566577354602    -2.762561182634
S                     0.370836059553     1.424775888806     3.994539377060
Cl                    6.593768150917    -0.777247676376     3.696194213491
Cl                   -4.463942201125     4.527316104035     0.138236841033
H                     3.615641080447    -0.849444752007    -1.936787119940
H                     4.625111920852    -3.705945377827     1.120367724972
H                     4.190674840822    -1.696630483543     2.366404411600
H                     1.472713316765    -1.381602452772    -0.958319121275
H                     5.438626349895    -1.743355508302    -3.368491838180
H                     6.461418078263    -4.578349615558    -0.315523139553
H                     2.489754576929    -0.694742133431     3.856007572650
H                    -0.224040861952    -0.345046227184     0.548594336520
H                     9.416907355127    -3.764872890391     1.038114509596
H                     7.609015701424    -0.489628109351    -1.073861377404
H                    -0.025091032696     2.464743714580     0.297307865109
H                    -1.662538104160     3.718038881585     4.062299079524
H                     8.357560133839    -2.979025031279     3.167212311546
H                     6.536017427926     0.282272506483     1.027729232208
H                    -2.086482684915     3.286113255430    -0.877443893939
H                    -3.717926404969     4.535670880839     2.904760185114
