48
0 1 C24Cl2H16O4S2
C                     4.021386632499    -2.968718214996    -1.246589549811
C                     5.297088945931    -2.235263085531     0.665382667393
C                     2.617770381304    -1.707873266142     1.955828371217
C                     1.886847364793    -1.076591048085    -0.255093874983
C                     5.172981289885    -3.513556314088    -1.811878797606
C                     6.454749768062    -2.782161350882     0.113234112138
C                     1.490995394540    -1.100212232869     2.506981570598
C                     0.752444082158    -0.471011956711     0.283844945981
C                     5.834507721233    -1.121312168707    -4.288135656714
C                     6.797332458368    -0.282347194555    -2.225195822480
C                     2.930517086786     1.810998585401     3.808597866665
C                     2.475010948408     2.267872482824     1.469662266180
C                     4.723239272483    -0.293969450132    -4.111295115909
C                     5.683047329093     0.534862478951    -2.040324102026
C                     4.269980285130     1.559616608087     3.503219281787
C                     3.809064241124     2.005689231333     1.160968095029
C                     4.063545487651    -2.308055887698    -0.007304629922
C                     2.844327396224    -1.695521000020     0.569281260129
C                     6.384970259686    -3.401904997446    -1.133961673669
C                     0.574028424218    -0.472391791580     1.666828059138
C                     6.854341957548    -1.125238827655    -3.335198399966
C                     2.037895115128     2.143526448320     2.788453246749
C                     4.649654471952     0.515729949896    -2.976853917727
C                     4.693927569981     1.642194018590     2.176033142900
O                     7.531481614328    -3.906789021193    -1.773488033451
O                    -0.513095763951     0.182882400441     2.272881441463
O                     7.903947582024    -2.026431993722    -3.572410588526
O                     0.703721916147     2.327697548730     3.183269977041
S                     8.654624334009    -2.743935573597    -2.245701730441
S                    -0.513392526531     1.859567231812     2.116226762241
Cl                    3.227627304206     1.522427949343    -2.717010026390
Cl                    6.368480399288     1.272767528373     1.773075301686
H                     3.077747305097    -3.062580213097    -1.775733125977
H                     5.364647402302    -1.705182468819     1.610272530504
H                     3.327133723400    -2.201095023223     2.613717434215
H                     2.050859475238    -1.026347741015    -1.326947845097
H                     5.150287080696    -4.001744627501    -2.780999087223
H                     7.410006382066    -2.691060149665     0.621807136055
H                     1.324739842602    -1.084879206770     3.579441469785
H                     0.035675111378     0.035319086243    -0.355913145794
H                     5.906059253584    -1.784345485081    -5.144737202405
H                     7.587554353426    -0.289545428107    -1.483510659155
H                     2.564488565149     1.725115870539     4.826989962786
H                     1.779731054512     2.521798241449     0.677925103930
H                     3.917393277402    -0.294254502020    -4.838320308338
H                     5.630472345522     1.169694407154    -1.164304017582
H                     4.969344024772     1.284798351090     4.286359690369
H                     4.140141264176     2.080148788252     0.132299292809
