48
0 1 C24Cl2H16O4S2
C                     4.939048645337    -1.751523930061    -1.603247703032
C                     5.022384186862    -3.452821661350     0.106963674406
C                     3.309023363629    -1.538395125535     1.747504167674
C                     2.299361114536    -1.019277351385    -0.383262680366
C                     5.872516710490    -2.457669213244    -2.359359829944
C                     5.959327803267    -4.167476950181    -0.639239048308
C                     2.222275891425    -0.967577145369     2.410413884126
C                     1.204451253193    -0.453031478195     0.267029689224
C                     3.675460600576    -3.564534664179    -5.045795664009
C                     3.472830756579    -4.863075996144    -3.005711131090
C                    -2.032244026403    -1.980570432709    -0.234991506980
C                    -3.450554946644    -0.738028453548     1.297479426764
C                     2.480627391900    -2.905443813277    -4.751967678821
C                     2.285871646588    -4.192930495725    -2.701792720764
C                    -2.873238421618    -1.642280676650    -1.296981058251
C                    -4.287859542629    -0.390702393354     0.234665438566
C                     4.469577255780    -2.253326618411    -0.377230880389
C                     3.362997671665    -1.582022886663     0.342496847178
C                     6.345873271501    -3.680272435412    -1.887209935850
C                     1.172997383133    -0.435357022860     1.660110297327
C                     4.170514527914    -4.531390974936    -4.167842907973
C                    -2.329925194284    -1.531764381624     1.052301131477
C                     1.798805273529    -3.219950636247    -3.574984554105
C                    -3.994097101331    -0.846153666639    -1.053092076778
O                     7.170235955074    -4.436535070905    -2.737812972103
O                     0.053143875532     0.157435755368     2.259969951447
O                     5.389640685384    -5.108309950290    -4.556821421895
O                    -1.464244010136    -1.966042973079     2.064689315260
S                     6.407061952994    -5.787045594954    -3.402330344797
S                    -0.918317372354    -0.850604613201     3.197943076823
Cl                    0.305457966752    -2.370439483084    -3.187227370602
Cl                   -5.049210015916    -0.405639330310    -2.386880055917
H                     4.555334597977    -0.808669414797    -1.981129238552
H                     4.673184061453    -3.862817157291     1.050427246180
H                     4.134763611900    -1.937185892010     2.330425197955
H                     2.299336147955    -1.069621080415    -1.466746441540
H                     6.201929005538    -2.098688628247    -3.329245045218
H                     6.345260934092    -5.119930792964    -0.287456654529
H                     2.181334440196    -0.940800159372     3.495332228843
H                     0.365525327027    -0.047695525180    -0.289762337845
H                     4.237723240483    -3.326739877969    -5.943514062007
H                     3.863717584066    -5.606008700035    -2.320607785923
H                    -1.145530905689    -2.584572750624    -0.397330433170
H                    -3.662500992478    -0.384589078920     2.301573069985
H                     2.091006530929    -2.149074167568    -5.425767878145
H                     1.750734619917    -4.423674545948    -1.786472338251
H                    -2.655058059688    -1.989288616672    -2.301849390449
H                    -5.164282214512     0.225886933693     0.406770102633
