48
0 1 C24Cl2H16O4S2
C                     5.044945815992    -1.619312067911    -1.479591006513
C                     5.146664222385    -3.398051941757     0.149232497874
C                     3.408151378782    -1.559145222320     1.819253003748
C                     2.294386346037    -1.071609458492    -0.267419343572
C                     6.165713276138    -2.139022033693    -2.127836370482
C                     6.263148141180    -3.930305825772    -0.493400015716
C                     2.352898809039    -0.978045085529     2.523288446809
C                     1.234474519124    -0.486402567873     0.425241318927
C                     8.897897104495    -3.487635462733     1.847651494554
C                     8.304941990574    -1.445819419646     0.675964952165
C                     0.193592899559    -2.520212477269     5.285747101358
C                    -1.768155821622    -1.117831865445     5.578451542784
C                     8.118472207862    -3.095131670777     2.937216883031
C                     7.512360944134    -1.059064540114     1.758046018015
C                     0.405478497480    -2.519927076124     6.666649801938
C                    -1.553704015860    -1.109051217404     6.958144284963
C                     4.532230287034    -2.223614556306    -0.318138169283
C                     3.395595437643    -1.618570791182     0.415304138217
C                     6.781429958214    -3.277906833457    -1.610595699026
C                     1.275024702014    -0.443590226492     1.819212918574
C                     8.975065847645    -2.669293752172     0.719400426171
C                    -0.891553763957    -1.823878705791     4.753368146309
C                     7.420242918324    -1.887989233961     2.877505637851
C                    -0.469036638727    -1.810248323244     7.491601528539
O                     7.968261626458    -3.778054049113    -2.175321103212
O                     0.266722671190     0.182765960288     2.565554851937
O                     9.750599709540    -3.179732739602    -0.332454640668
O                    -1.074070931579    -1.919901249776     3.368615967278
S                     9.324829853707    -2.811142936764    -1.918594742993
S                    -1.270766021409    -0.493563309220     2.497529460179
Cl                    6.405199984769    -1.407750469320     4.231833895011
Cl                   -0.201905717903    -1.796746668345     9.227538019974
H                     4.589875105790    -0.706921506775    -1.855057260824
H                     4.751276483424    -3.897616734391     1.028732541616
H                     4.261445974373    -1.944225906868     2.368602555524
H                     2.254831788902    -1.124564460093    -1.351993834229
H                     6.584344171558    -1.647180947581    -3.001134706028
H                     6.759415535362    -4.819494437478    -0.118318542030
H                     2.362944026568    -0.915453867465     3.607232761493
H                     0.379167399099    -0.077830325791    -0.105004295240
H                     9.431253820276    -4.433199566403     1.853440777907
H                     8.359193217045    -0.819121474349    -0.206905193685
H                     0.857019892027    -3.058877819451     4.616237920660
H                    -2.603519549061    -0.573632779585     5.149200558172
H                     8.043842054794    -3.728151108824     3.815647581341
H                     6.963359225831    -0.123674487457     1.724611908623
H                     1.244613041178    -3.058522207074     7.095212697423
H                    -2.226453803712    -0.566337325596     7.614467110420
