48
0 1 C24Cl2H16O4S2
C                     4.475129425409    -1.560788804402    -2.624111913994
C                     5.217986007158    -2.731856818008    -0.652893582503
C                     3.744319943868    -0.557104199290     0.854327284917
C                     2.098790251439    -0.736826549224    -0.901422627889
C                     5.446957213181    -2.214335370416    -3.382390460655
C                     6.181525916709    -3.404796040718    -1.400888792474
C                     2.849241034171     0.175750022993     1.632818220816
C                     1.189985844883    -0.012726780710    -0.128346296711
C                     7.993489260959    -0.479843003589    -1.746260998112
C                     9.307511391757    -1.950015751149    -0.328542772223
C                    -2.138905567081    -1.173916384028     1.530036496320
C                    -2.878338102397     0.156819544381     3.423818987755
C                     7.486322652481     0.163845567794    -0.616032108736
C                     8.805929111007    -1.306845466510     0.804916865734
C                    -3.434248975326    -1.154079096764     1.006212992658
C                    -4.171879265357     0.184774822815     2.899468227795
C                     4.360306178232    -1.785883914359    -1.242238056814
C                     3.387771610793    -1.026616652998    -0.422986087366
C                     6.310947210465    -3.114348974021    -2.759653607867
C                     1.574174807622     0.441524953674     1.133134590856
C                     8.884131670632    -1.541593768935    -1.593515329779
C                    -1.873354028559    -0.523361314995     2.734616016778
C                     7.891752375698    -0.262338697297     0.650063399903
C                    -4.438913801844    -0.471680291653     1.694768726989
O                     7.315723158905    -3.660496384535    -3.575705526304
O                     0.634600873558     1.214339569679     1.831085538473
O                     9.338033031493    -2.190361875321    -2.752779728195
O                    -0.574848611852    -0.628322148911     3.245874144072
S                     8.858089150852    -3.800619583571    -2.919332778269
S                     0.300074699905     0.800573273354     3.423421062368
Cl                    7.237458325707     0.525612545976     2.079766510635
Cl                   -6.067346911036    -0.437180657488     1.037498208649
H                     3.836654720664    -0.824351136926    -3.104257675741
H                     5.126077678401    -2.951090131460     0.406902957863
H                     4.746704519326    -0.732586178150     1.232134169408
H                     1.789309363113    -1.109274170347    -1.874155520362
H                     5.574955268953    -2.004667310763    -4.440094115737
H                     6.852453996138    -4.112127183571    -0.925471594238
H                     3.139821125436     0.540900835433     2.613044066798
H                     0.187940202136     0.205067281856    -0.485764904043
H                     7.673337662349    -0.190273122203    -2.741280908494
H                    10.008074876680    -2.773582779743    -0.229451519010
H                    -1.333962464740    -1.692992490764     1.018855131472
H                    -2.650929519634     0.662222495176     4.357554610198
H                     6.768971327473     0.971366429913    -0.718739272164
H                     9.119692519372    -1.614664225093     1.797219599309
H                    -3.659002882402    -1.658165512868     0.071696346986
H                    -4.966855574231     0.706027049119     3.423057374747
