48
0 1 C24Cl2H16O4S2
C                     4.960587745343    -2.345969127630    -1.951043175162
C                     4.517215830909    -4.557529889636    -1.101988548470
C                     3.436031715139    -3.104965593138     1.326110374535
C                     2.558354977936    -1.518459686482    -0.265882194902
C                     5.854945254207    -2.878834449453    -2.879887602063
C                     5.394115714800    -5.105477285849    -2.035563883136
C                     2.629090444943    -2.564197147259     2.326511948357
C                     1.738372463472    -0.974349867526     0.723761026307
C                     8.086160451583    -3.750284908763    -0.341675045554
C                     8.236141851629    -6.158955624948    -0.070239289287
C                    -2.142847291704    -1.077973682301     1.081420499230
C                    -3.014071988141    -0.789191475902     3.331276646490
C                     7.462744299301    -3.644436173698     0.902954574746
C                     7.616291888071    -6.057919566110     1.176994655488
C                    -3.092327179730    -0.175753039303     0.594381421132
C                    -3.959230329309     0.118025467815     2.849017583802
C                     4.296751899979    -3.170564516881    -1.027586020979
C                     3.416304396192    -2.595178985956     0.015117878520
C                     6.084694853448    -4.254030222529    -2.898966858847
C                     1.782803399188    -1.499847941888     2.015022345673
C                     8.450569003025    -5.005971649838    -0.825798119091
C                    -2.114781388775    -1.379990409652     2.442555959733
C                     7.226090376822    -4.801865962350     1.646845750860
C                    -3.990482974443     0.416778764600     1.483966428903
O                     7.064591937504    -4.696876748661    -3.803140012291
O                     0.978560271294    -0.865779912739     2.973361194675
O                     9.035827514880    -5.074472131604    -2.099998479430
O                    -1.186125327794    -2.336443683833     2.868275448479
S                     8.130618274792    -5.884906802199    -3.272594486940
S                     0.003177217015    -1.824500409637     3.946699301833
Cl                    6.417090099266    -4.680394497831     3.203694846804
Cl                   -5.181443235658     1.557110504194     0.878795539538
H                     4.822088861047    -1.269178204021    -1.907810122023
H                     3.988912921534    -5.220751720099    -0.423239213993
H                     4.117937380008    -3.910357660007     1.580416521614
H                     2.504903115976    -1.122151062756    -1.276222970890
H                     6.410719017321    -2.240860325183    -3.560462645543
H                     5.572415562307    -6.175054598016    -2.061949346790
H                     2.661013880401    -2.960645293849     3.336626940305
H                     1.063919137760    -0.150037376412     0.511855742993
H                     8.255446458529    -2.871812929339    -0.954893926527
H                     8.534265999044    -7.127508028041    -0.459988973158
H                    -1.428159659562    -1.554503443872     0.417475336437
H                    -2.972849369185    -1.033012854986     4.388591234611
H                     7.145942498270    -2.677139619253     1.278727931760
H                     7.436311357867    -6.944688763733     1.776260144145
H                    -3.130387388049     0.067930504993    -0.462548296404
H                    -4.668694950631     0.584981958553     3.524618679009
