48
0 1 C24Cl2H16O4S2
C                     5.808049246999    -1.248578361813    -0.797276785087
C                     5.623784593350    -3.396201287340     0.282152579052
C                     3.581260897454    -2.048039241169     2.096368117385
C                     2.982811400056    -0.826990683436     0.102083596877
C                     6.881966595476    -1.707998194298    -1.554680062058
C                     6.691945361625    -3.873352599296    -0.478700578784
C                     2.376315392746    -1.677704688150     2.694235588645
C                     1.773339218236    -0.454534156261     0.685696224730
C                     4.573824309015    -3.881486084775    -3.170997854807
C                     5.244414736341    -2.201645743238    -4.790703609396
C                    -1.261408146867    -1.566878543991    -0.907890485763
C                    -2.973287686669    -0.832909265949     0.652363410439
C                     3.386148550203    -3.186683730978    -2.934710064749
C                     4.055413960128    -1.505398254105    -4.561541349232
C                    -1.885752020884    -0.857497781382    -1.935633868169
C                    -3.594329039799    -0.115259908336    -0.372677977254
C                     5.136422807114    -2.090241568229     0.108224730158
C                     3.901623706564    -1.638993173812     0.788917420316
C                     7.288363167791    -3.036208449841    -1.420148556897
C                     1.477310067523    -0.887846967556     1.976614637264
C                     5.498459708008    -3.378942564205    -4.085843163188
C                    -1.812151371496    -1.554255825980     0.374313447050
C                     3.139797693469    -2.002877411182    -3.631639097087
C                    -3.047480300144    -0.134200949325    -1.658170222545
O                     8.265332446635    -3.620622341950    -2.242471939670
O                     0.250722416131    -0.476304310913     2.516874649679
O                     6.679985432779    -4.109196870059    -4.287962515223
O                    -1.151935727974    -2.339232643529     1.328539255598
S                     8.122059627176    -3.324708017400    -3.894967567439
S                    -0.865097078342    -1.693360205424     2.854160291981
Cl                    1.647222726122    -1.116723916535    -3.334893805563
Cl                   -3.831734732590     0.770316735526    -2.944017376408
H                     5.482551058815    -0.219329713664    -0.915620478910
H                     5.119242883757    -4.073170453806     0.965777784100
H                     4.290015622256    -2.647251378179     2.661328703799
H                     3.188378489788    -0.524013308944    -0.918852550435
H                     7.364522193198    -1.059532401562    -2.278342693154
H                     7.030491736881    -4.901722347600    -0.395861617153
H                     2.129794236202    -2.001523601249     3.701145555315
H                     1.047311466639     0.145041874750     0.145737070727
H                     4.800763929642    -4.793011573466    -2.629283933298
H                     5.971631210457    -1.826622426127    -5.504322732205
H                    -0.349013934408    -2.124926536128    -1.090954991957
H                    -3.382932713835    -0.820387144526     1.657373075287
H                     2.671236102415    -3.553267555304    -2.205540085334
H                     3.841663425297    -0.588584660505    -5.101577228639
H                    -1.469215555946    -0.863708422089    -2.937759670680
H                    -4.498748377065     0.451069622480    -0.174630776150
