48
0 1 C24Cl2H16O4S2
C                     4.726655667014    -0.209253306430    -1.471629895219
C                     5.342932578420    -2.146351074560    -0.177530958312
C                     3.126749617524    -1.274756980680     1.703780498468
C                     1.956960842198    -0.635081562260    -0.305251137839
C                     5.914402028650    -0.309027293497    -2.195378332400
C                     6.532698566047    -2.266409519508    -0.897480120083
C                     1.944898221222    -1.173507372378     2.437460538830
C                     0.769150296659    -0.520564036633     0.418267430053
C                     9.262289574242    -3.862374590515    -4.368640814552
C                    10.360222328649    -5.440164376999    -2.879742993806
C                    -1.313378085091     2.650059906849     1.257786039987
C                    -2.782822176799     2.435953283381     3.180934432255
C                     9.576016760427    -4.680859215965    -5.457058481160
C                    10.664743043184    -6.261725305371    -3.966711529791
C                    -2.353678419365     3.224476741847     0.522645682194
C                    -3.826437737505     3.002416838909     2.446692580323
C                     4.419114668257    -1.122058546704    -0.447232399772
C                     3.157490236081    -1.009202753938     0.322624470174
C                     6.811251888091    -1.336893709605    -1.900992287509
C                     0.771124312867    -0.795278151555     1.785397838633
C                     9.664663669491    -4.247727785451    -3.088081601553
C                    -1.534858867074     2.265821757088     2.579904920783
C                    10.272811985015    -5.872600066484    -5.249596137957
C                    -3.602730135485     3.392479012506     1.123299499014
O                     7.957110682564    -1.404387807443    -2.705519229016
O                    -0.467819245387    -0.723121547398     2.438686907016
O                     9.352723758168    -3.510821214049    -1.939668600979
O                    -0.441504754980     1.754323198128     3.288331714467
S                     9.421499274498    -1.831699246451    -2.004108351459
S                    -0.564552299737     0.172495493187     3.855268619010
Cl                   10.659307784677    -6.899746907421    -6.621113848955
Cl                   -4.916134525975     4.106664757106     0.201393897705
H                     4.047364232818     0.611806538749    -1.682858990601
H                     5.114189072059    -2.887727780489     0.582925750541
H                     4.045193076932    -1.542172868724     2.218665294149
H                     1.943963826562    -0.452630123740    -1.376131670599
H                     6.162190210065     0.405473232167    -2.974714321970
H                     7.221052451023    -3.079688888034    -0.694809767570
H                     1.936940882962    -1.367311032637     3.505676330952
H                    -0.163330704826    -0.240972103770    -0.062976845373
H                     8.704950192724    -2.944332469686    -4.518503218519
H                    10.658863217610    -5.713799081538    -1.872412458256
H                    -0.330988888587     2.501816091924     0.820089593472
H                    -2.937953296621     2.124935701477     4.209616866080
H                     9.270321695826    -4.396669431655    -6.458911355233
H                    11.207817780933    -7.189664151311    -3.819097504540
H                    -2.197488484737     3.532283985534    -0.506333196705
H                    -4.802851972955     3.145144759302     2.898437745138
