14
0 1 C3H6N4S
C                     0.340090482606    -3.254244050053     0.800244432052
C                     0.381867261228    -2.012943351290     0.203999793836
C                     0.802517803807    -0.706488348769     0.833495387919
N                    -0.039312442686    -4.282462554218    -0.025129069954
N                    -0.303216075748    -3.933005132265    -1.229463824784
N                     2.033793489027     0.142898892259    -1.027201901826
N                     2.089726673511    -0.180784360970     0.367912260213
S                    -0.087632508102    -2.217290999766    -1.434252103248
H                     0.570276012742    -3.468380587908     1.838206401025
H                     0.050822893702     0.064651987584     0.650147126321
H                     0.878760518590    -0.849889520160     1.916381845609
H                     2.607769937459     0.970211717614    -1.174305144065
H                     2.403747494838    -0.608679064392    -1.610863674366
H                     2.824960960259    -0.861544653517     0.562368745229
