48
0 1 C24Cl2H16O4S2
C                     3.897960048690    -2.805686733423    -1.755002264784
C                     5.665982745201    -3.000714798620    -0.130669130660
C                     3.462304405838    -2.960971780313     1.935368819180
C                     2.333915148118    -1.443721099712     0.437067699321
C                     4.781902582741    -3.178285889732    -2.766818111663
C                     6.562167958066    -3.368327089439    -1.132371194520
C                     2.546030181402    -2.660727230398     2.942528060066
C                     1.406993592448    -1.141664054349     1.433147763327
C                     6.860533770130    -6.932177871450    -0.771539568807
C                     4.876807393329    -6.465975595823    -2.091742865143
C                    -1.375864457274    -2.934449482015     0.243754110077
C                     0.028144935546    -4.488400755927     1.468822239692
C                     6.076924441746    -6.994736994916     0.383049818833
C                     4.090196651183    -6.524701354284    -0.941587929610
C                    -0.854355654108    -3.407243712863    -0.962416826173
C                     0.559605609381    -4.952974896155     0.266238061284
C                     4.317728151228    -2.723986831030    -0.416065449595
C                     3.366723237982    -2.369580437967     0.662165375788
C                     6.105480897241    -3.477339552793    -2.445700521223
C                     1.510436873125    -1.766462121167     2.674002725541
C                     6.254955477814    -6.647928242489    -1.995872994075
C                    -0.918739793355    -3.464197272721     1.451520563243
C                     4.700867390426    -6.774090894731     0.287221408800
C                     0.123011163823    -4.403334545626    -0.939071422093
O                     6.918411601487    -3.902805899036    -3.512585501453
O                     0.511041079969    -1.488629210393     3.624044065296
O                     7.009623279030    -6.511534700309    -3.170769562467
O                    -1.467777855549    -2.892301453829     2.609911470005
S                     8.007236401166    -5.148609075637    -3.221238537159
S                    -0.502350339137    -2.784462022890     3.986108398737
Cl                    3.718970974324    -6.798680002843     1.748675755435
Cl                    0.822205556175    -4.970809422304    -2.452978422403
H                     2.856187950882    -2.632818874108    -2.006294726481
H                     6.029030014728    -2.909992250156     0.888949079641
H                     4.232769713157    -3.700899694291     2.128648117740
H                     2.252599364878    -0.950893685488    -0.527118732488
H                     4.448632421782    -3.284382539029    -3.794718971916
H                     7.594649355087    -3.596001906548    -0.890362056879
H                     2.604691258532    -3.147975291160     3.911405203338
H                     0.590689346441    -0.449086626134     1.254161821690
H                     7.935261902762    -7.076864144406    -0.717657999077
H                     4.432675421668    -6.239748618146    -3.055144109097
H                    -2.115931359647    -2.140368625649     0.258937585404
H                     0.385838709735    -4.894952207828     2.407616441720
H                     6.531063440217    -7.203377207214     1.346428837345
H                     3.023198580491    -6.351536557760    -1.011728003462
H                    -1.192494610537    -2.992665621654    -1.906728467929
H                     1.312722767908    -5.731763293147     0.283654574480
