48
0 1 C24Cl2H16O4S2
C                     4.873660048367    -2.908663750769    -1.524118411234
C                     4.945331772738    -3.722445514847     0.742064869141
C                     2.706309280008    -1.771959880794     1.279359457135
C                     1.973348433809    -2.276304318414    -0.963019135675
C                     6.079420099681    -3.548216955711    -1.804816372094
C                     6.149230252709    -4.372604150772     0.473927881895
C                     1.467638189808    -1.198056199520     1.560429434866
C                     0.733209617698    -1.697460355120    -0.696558608291
C                     4.892869757918    -6.957100858631    -1.264096621102
C                     5.111312459450    -6.486281765846    -3.636079491855
C                     0.064253522436    -3.724311409567     3.562682453982
C                    -0.304657152295    -4.342295668909     1.245555077157
C                     3.543048921112    -6.609851428589    -1.313255855739
C                     3.759196882712    -6.140311701088    -3.691584450265
C                     1.148428886474    -4.602112381705     3.628850994659
C                     0.785509333867    -5.209744177937     1.305462541246
C                     4.276540230422    -2.990540927528    -0.254259743530
C                     2.976980285245    -2.336512990172     0.021352834920
C                     6.699125163935    -4.298019877368    -0.805296698553
C                     0.483641400565    -1.181053375901     0.574402483713
C                     5.670304286767    -6.872014386134    -2.417347105731
C                    -0.643636193422    -3.586115738522     2.367694365720
C                     2.993242144350    -6.190563088694    -2.524434507061
C                     1.509806067431    -5.326327775440     2.491805710131
O                     7.883230304810    -5.030052604949    -1.011288622333
O                    -0.775103185730    -0.660353129053     0.924937717933
O                     7.037451808938    -7.164461139426    -2.300224096731
O                    -1.686608126470    -2.646744818003     2.386730441644
S                     8.065657533473    -5.834586108254    -2.474575721319
S                    -2.021568876323    -1.792161495984     0.974290604970
Cl                    1.302405944885    -5.702307696778    -2.580199466110
Cl                    2.905958692120    -6.398587127048     2.551852871713
H                     4.399503604252    -2.319884628222    -2.303976958008
H                     4.495466097206    -3.835682548043     1.723454174721
H                     3.472111853463    -1.778907898194     2.049201610663
H                     2.144510331632    -2.729404970654    -1.934528803275
H                     6.515841604834    -3.488956289051    -2.795982565315
H                     6.644556484056    -4.974430439079     1.229811716466
H                     1.244442566740    -0.787158197138     2.539925302053
H                    -0.049157297848    -1.686884896735    -1.449790159056
H                     5.354492782677    -7.253513414109    -0.328348876401
H                     5.731993262979    -6.431697549324    -4.525278216137
H                    -0.222961488611    -3.126033138039     4.421791373592
H                    -0.852122483945    -4.229672634739     0.317009582463
H                     2.946539763084    -6.644698023084    -0.409746047096
H                     3.308636990180    -5.826745749907    -4.627828409729
H                     1.714534628247    -4.707067220042     4.548881086098
H                     1.061878106550    -5.777901423337     0.425190200408
