48
0 1 C24Cl2H16O4S2
C                     5.054644459491    -1.934838419569    -1.745591356102
C                     5.154885000936    -3.318744544785     0.222284575707
C                     3.233534096651    -1.401532044416     1.498918786083
C                     2.322471214678    -1.157237199899    -0.718833497458
C                     6.011071523525    -2.740557338035    -2.365113457336
C                     6.127031522727    -4.116245304126    -0.373743914785
C                     2.046660020146    -0.914100782504     2.043888068206
C                     1.134084003565    -0.658054748383    -0.188730094375
C                     4.077228735002    -6.803819287245    -0.981371996194
C                     3.577278124555    -5.105050747850    -2.640391982087
C                    -0.123491550895    -3.257318670190     3.866055922908
C                    -2.296485708451    -2.230752495407     4.228599595650
C                     3.015441810976    -6.347322825467    -0.195468081339
C                     2.514575279446    -4.649709696886    -1.859444605577
C                    -0.016682803701    -3.521305579870     5.233640820626
C                    -2.187582414356    -2.485691104504     5.597228872219
C                     4.565908913340    -2.242294845224    -0.464521090212
C                     3.384821638347    -1.559872237722     0.110875124801
C                     6.501312425378    -3.859511609511    -1.692534334426
C                     0.998211494559    -0.561493967674     1.195306758778
C                     4.367261032601    -6.159110747956    -2.184194246137
C                    -1.263056105245    -2.619782466520     3.375784699201
C                     2.254581445747    -5.259039157112    -0.630764952626
C                    -1.048813933035    -3.129646698707     6.088432844845
O                     7.317147259447    -4.731097649314    -2.434485356382
O                    -0.175505458453    -0.099963353131     1.808157088992
O                     5.462349258414    -6.534620034958    -2.982190664605
O                    -1.331078179062    -2.443414226959     1.988241586642
S                     6.986443629127    -6.378211185010    -2.274085954629
S                    -1.605535939376    -0.890183052104     1.402526246684
Cl                    0.970730242487    -4.621132920986     0.382556805593
Cl                   -0.913935869718    -3.450189020602     7.810441349761
H                     4.659397079493    -1.077758756977    -2.283567995312
H                     4.793762433594    -3.589237587725     1.209426349782
H                     4.048529787959    -1.669441575422     2.165116502799
H                     2.406699917375    -1.278183524829    -1.794782553042
H                     6.342089786739    -2.545024231400    -3.380631200435
H                     6.517018463200    -4.984737445866     0.145529389839
H                     1.914865811110    -0.812082920020     3.116782305464
H                     0.305904211310    -0.389306958341    -0.837276083918
H                     4.693031117327    -7.632544962835    -0.645444254365
H                     3.825754162259    -4.622231535209    -3.579475654633
H                     0.663273404074    -3.542513563111     3.174845057797
H                    -3.172101813721    -1.727332927256     3.830576628265
H                     2.788853458182    -6.825872424701     0.752059788376
H                     1.911813003657    -3.809304064236    -2.185404844842
H                     0.861671576671    -4.019582646221     5.631447560911
H                    -2.982120389871    -2.192067625141     6.275722307182
