48
0 1 C24Cl2H16O4S2
C                     3.175352718662    -3.840230709750    -2.420166747122
C                     4.743849708819    -2.199101681464    -1.612020270536
C                     2.849582543976    -1.925346530899     0.743589772650
C                     1.105056479808    -2.230962658136    -0.890490541105
C                     4.112967501107    -4.284023706366    -3.352134123915
C                     5.697961929479    -2.637242964926    -2.531877506240
C                     1.908811351765    -1.479136930132     1.671213541187
C                     0.150918117794    -1.778955090217     0.022578938517
C                     9.346605183712    -5.203409603928    -3.990402190250
C                    10.859299569152    -3.310148320294    -3.791731004547
C                    -4.497412934872     0.712519265020     0.861550559135
C                    -2.528504461906     1.457315778673     2.078531538028
C                    10.426841881771    -6.075296269304    -3.829199254070
C                    11.936278382422    -4.182073382769    -3.621256031660
C                    -5.060530217141     1.984152438540     0.984093009536
C                    -3.097381181933     2.727184077402     2.208741559833
C                     3.469674018721    -2.787249516765    -1.535911781553
C                     2.466935974053    -2.312525418963    -0.552951380585
C                     5.368480359842    -3.676962199121    -3.402964045090
C                     0.564197084242    -1.410694657859     1.304034276080
C                     9.575249860937    -3.825773117387    -3.977124340269
C                    -3.238986939717     0.458042849881     1.409940617376
C                    11.711320239401    -5.560310406067    -3.645427581910
C                    -4.355894777084     2.982101524704     1.661103054941
O                     6.276120973417    -4.212107517999    -4.328108300889
O                    -0.313708723192    -0.898989836206     2.269897765720
O                     8.545720214397    -2.884098106375    -4.086651597796
O                    -2.723886107439    -0.825066700934     1.193066735770
S                     7.290242360735    -3.171602508563    -5.168723831679
S                    -1.845068670549    -1.570556690738     2.418329406804
Cl                   13.064600625140    -6.660989976497    -3.438205061819
Cl                   -5.062216673161     4.582446002805     1.821635042044
H                     2.208666924679    -4.333036247788    -2.367716670539
H                     4.991551343301    -1.369551235565    -0.955735185998
H                     3.890187790159    -2.006713273904     1.044721895625
H                     0.786105944130    -2.488275240869    -1.896646827133
H                     3.888548653165    -5.098688863004    -4.034241807475
H                     6.678762901128    -2.175944473966    -2.572110807233
H                     2.199863357974    -1.195728470681     2.678320578742
H                    -0.891641226366    -1.695112178874    -0.264312882841
H                     8.342854161568    -5.594342750296    -4.115366615951
H                    11.005610744235    -2.234356927768    -3.785186818152
H                    -5.025208754893    -0.084415301165     0.346667906621
H                    -1.543200313904     1.255963818262     2.484148208970
H                    10.266876987426    -7.148746105591    -3.836618995911
H                    12.940104193181    -3.794640928861    -3.479815853425
H                    -6.039247415937     2.194604029722     0.565042481879
H                    -2.558562145522     3.515703011404     2.724354011221
