48
0 1 C24Cl2H16O4S2
C                     4.396273749979    -3.399498024320    -0.953036006508
C                     5.782130512353    -1.925112729824     0.355558258389
C                     3.248967602918    -1.580366429700     2.044780139272
C                     2.112853659698    -1.630275190937    -0.084243387365
C                     5.524689254889    -3.932263305192    -1.573812178354
C                     6.921142632153    -2.451976160766    -0.253880593350
C                     2.075050313997    -1.157117325385     2.669222122744
C                     0.935406769365    -1.204735516607     0.527188964887
C                     7.060307602387    -5.996809298096     1.085878494431
C                     6.263336147259    -7.567650437460    -0.587495047586
C                    -1.091172229786    -4.152318478477     0.205474642473
C                     0.536281536434    -4.257977006086     2.002548733925
C                     5.960410409879    -6.295023416220     1.892755972315
C                     5.158865657127    -7.863936837090     0.213258706947
C                    -0.263888122878    -4.941143435659    -0.596663386726
C                     1.373244146355    -5.029793673248     1.195632933028
C                     4.499723179696    -2.389089915824     0.018075243571
C                     3.281291366228    -1.850526143916     0.665234709445
C                     6.784996580864    -3.454873392523    -1.215045576747
C                     0.918573086658    -1.001995900089     1.905871555397
C                     7.205323595080    -6.639028429033    -0.143049649554
C                    -0.681753335917    -3.805557299081     1.494510914546
C                     5.022870331382    -7.229678944450     1.450078719389
C                     0.968562711465    -5.364864338500    -0.096530543523
O                     7.987740877712    -3.907398268207    -1.783210722762
O                    -0.312641864893    -0.689261953070     2.507941931983
O                     8.346344466280    -6.348481204965    -0.902319689096
O                    -1.574469940335    -2.979551250389     2.196820610179
S                     8.095392053858    -5.487840116243    -2.330151168828
S                    -0.989120436459    -1.955002823018     3.395205238243
Cl                    3.651747058494    -7.628025445490     2.474621495148
Cl                    2.031789531972    -6.335420725106    -1.110591678724
H                     3.421838753715    -3.802089722530    -1.209008320953
H                     5.892996286593    -1.128166421197     1.085928544012
H                     4.138985705193    -1.748019538651     2.645193090501
H                     2.122130728879    -1.802818278323    -1.156295788349
H                     5.422178204536    -4.729037895814    -2.302131886411
H                     7.914718163923    -2.094325874360    -0.000591651872
H                     2.040319895067    -0.992434001274     3.742345112727
H                     0.021041811014    -1.068609970935    -0.041343483030
H                     7.801010316470    -5.267401686363     1.397208063343
H                     6.392766452902    -8.053083616184    -1.550247832495
H                    -2.044456589742    -3.787324143739    -0.164226882308
H                     0.855671574953    -3.980464178733     3.000217864177
H                     5.833352675552    -5.805739049801     2.853078352131
H                     4.415126958135    -8.582571300416    -0.114386003923
H                    -0.570298793821    -5.211554175669    -1.602143294318
H                     2.331210936152    -5.367347301473     1.572679569787
