48
0 1 C24Cl2H16O4S2
C                     4.905657589802    -1.296638855224    -1.468880888403
C                     4.644698939045    -3.459150456745    -0.437961902971
C                     2.860787146439    -2.035070790519     1.533886593909
C                     2.078592853792    -0.808628848072    -0.392183062940
C                     5.994026333978    -1.774270432541    -2.199427554082
C                     5.733118949909    -3.949170411237    -1.157482944503
C                     1.725415760556    -1.653353582781     2.245611590395
C                     0.935685169496    -0.422432753215     0.309081269572
C                     4.776801764231    -6.514602827443    -3.850175341275
C                     4.408835231603    -4.234689091818    -4.604645828184
C                     0.035888883096    -4.809173470996     2.550523165801
C                    -0.212854108636    -3.754450702893     0.379177352923
C                     3.408276873158    -6.660580827262    -3.616364037061
C                     3.038501374695    -4.378597902908    -4.378269352653
C                     1.005262833809    -5.667761193387     2.027799525220
C                     0.769739572525    -4.598258653960    -0.140286111532
C                     4.211066488840    -2.129609188223    -0.575892196937
C                     3.045354124321    -1.642564643725     0.196984973105
C                     6.400390060263    -3.099998958093    -2.039912883707
C                     0.756001851672    -0.875251994306     1.615566096521
C                     5.264484057228    -5.304268107936    -4.344635944540
C                    -0.558333430324    -3.850560868040     1.727425527977
C                     2.551332706390    -5.592460435207    -3.890721010283
C                     1.371716401165    -5.547007885844     0.686243362215
O                     7.515905590054    -3.481037141510    -2.804525200029
O                    -0.430599481606    -0.607948101327     2.320269959192
O                     6.626021242611    -5.137009040211    -4.629441664665
O                    -1.491049164237    -3.017769031805     2.367026845711
S                     7.665157021889    -5.074009366133    -3.303276477954
S                    -1.771140603345    -1.471440984247     1.768260593418
Cl                    0.824183980429    -5.786906294345    -3.630573297143
Cl                    2.613908848195    -6.605463999169     0.024826613427
H                     4.608629918735    -0.257238296836    -1.579703285986
H                     4.106549348848    -4.135392020421     0.217961647697
H                     3.609048717759    -2.653952190445     2.019941677567
H                     2.197816362937    -0.496563648752    -1.426175102145
H                     6.537791711488    -1.134146277139    -2.887778496833
H                     6.034238367339    -4.985697913086    -1.053721400776
H                     1.560759445650    -1.984256575323     3.266015020301
H                     0.168260048753     0.184484902496    -0.162757441862
H                     5.461085345105    -7.333684311869    -3.649797040473
H                     4.819673082412    -3.300495027283    -4.973528165476
H                    -0.252510463591    -4.862687950495     3.595808857410
H                    -0.669247454942    -3.004109121169    -0.255676372090
H                     3.009375577438    -7.593252856428    -3.231745975105
H                     2.358329167366    -3.556698666253    -4.577291536309
H                     1.477291689198    -6.412587415049     2.660588834682
H                     1.061320041556    -4.516577061098    -1.180530712862
