48
0 1 C24Cl2H16O4S2
C                     5.249048767634    -2.963194562727    -0.027316244034
C                     6.373806012277    -2.160829886929     1.949274950680
C                     3.359649133528    -1.942885675622     2.885148517846
C                     3.235628585343    -0.783894607818     0.768146399864
C                     6.439212749441    -3.510910205781    -0.499459708624
C                     7.582556100043    -2.670354270928     1.468904389162
C                     2.107736394360    -1.435210247381     3.241555465354
C                     2.000220497076    -0.248402164566     1.125881576879
C                     7.108751839236    -1.896326526751    -3.482403117227
C                     7.541755087154    -0.487511458718    -1.551622354424
C                    -0.147691814301    -1.338960866293    -1.324103872139
C                     0.369454192644    -3.089976172386     0.275971810399
C                     5.839853485291    -1.329457695565    -3.614639691953
C                     6.276753244932     0.088490399613    -1.685035062543
C                     0.815167150016    -1.843584159136    -2.199159213610
C                     1.338199718961    -3.592652849817    -0.595144626964
C                     5.197671978854    -2.269455442365     1.192609854750
C                     3.922738512283    -1.652332778774     1.632090448690
C                     7.609967569515    -3.321368850991     0.235134024986
C                     1.428515970454    -0.613072108383     2.343395955817
C                     7.940305670677    -1.485605502395    -2.439588773153
C                    -0.351384505434    -1.951394532955    -0.085886778943
C                     5.433606511373    -0.347610170146    -2.708790353819
C                     1.559812038523    -2.961154769792    -1.820352401154
O                     8.884147963998    -3.718050703404    -0.208607958947
O                     0.124903009394    -0.164063128420     2.626050004361
O                     9.199915731592    -2.071602084165    -2.240169733048
O                    -1.303428077126    -1.331890698918     0.736931146392
S                     9.189365488501    -3.717881287320    -1.860515893089
S                    -1.071012377262    -1.331075083375     2.405614458497
Cl                    3.823450061183     0.344703119264    -2.856679138461
Cl                    2.806315941002    -3.575303266955    -2.900367739093
H                     4.347773388596    -3.072542995400    -0.620659371853
H                     6.357351299829    -1.625960444006     2.895395425977
H                     3.882414378021    -2.610123273183     3.565505513857
H                     3.661336527442    -0.538762970086    -0.198837918859
H                     6.461238941194    -4.028134022943    -1.451667002453
H                     8.509986025675    -2.539346900778     2.018313700921
H                     1.645042087380    -1.698133219819     4.188548056445
H                     1.456352713192     0.406084622349     0.453322991337
H                     7.438305228804    -2.671809698761    -4.167195353820
H                     8.203226531699    -0.198192947091    -0.741612057494
H                    -0.723359640101    -0.454037518157    -1.577540083634
H                     0.215995955446    -3.554292105885     1.243806463982
H                     5.171127121732    -1.650772944277    -4.406133771359
H                     5.944678749297     0.850096121527    -0.987126115721
H                     0.999016166717    -1.361632791829    -3.153432367643
H                     1.921115372801    -4.464269417853    -0.315488340860
