48
0 1 C24Cl2H16O4S2
C                     4.241207147442    -2.665290769994    -3.349346164364
C                     4.248675531252    -4.101297434369    -1.407475043166
C                     3.310994924455    -1.612427583527     0.055177794600
C                     1.948346249967    -1.254134024011    -1.900046732502
C                     5.072698361345    -3.561326998308    -4.019717496449
C                     5.078661140738    -5.005747432162    -2.069367305303
C                     2.534585782286    -0.710046139450     0.778078553390
C                     1.148924968942    -0.363754948794    -1.182827574794
C                     8.020799922173    -1.767274857986    -4.016739482903
C                     7.734671052642    -2.830272449509    -1.854434488040
C                    -0.084755165229    -2.945965441765     0.841770994522
C                     0.727953289880    -2.753126635607     3.122367601586
C                     7.470955362158    -0.586100268753    -3.513787781492
C                     7.170065110211    -1.656200561466    -1.355735365821
C                     0.684462157016    -4.096645744433     0.660353779941
C                     1.496668486453    -3.905713293884     2.946855539001
C                     3.839489052014    -2.905834711191    -2.025340195301
C                     3.024408279594    -1.915603552934    -1.287015571852
C                     5.510830177826    -4.708790025245    -3.361536682180
C                     1.434188025179    -0.115713889465     0.159436135184
C                     8.125543629387    -2.888430739495    -3.192750107394
C                    -0.042696642076    -2.273948432056     2.062724474985
C                     7.026921193029    -0.546820306964    -2.190844289141
C                     1.475440225141    -4.560094890953     1.713184527846
O                     6.443492311379    -5.524831397180    -4.028305333481
O                     0.530115806997     0.726718846450     0.828642891107
O                     8.618115800275    -4.050272495516    -3.809832516474
O                    -0.794710905336    -1.095753639697     2.189841471868
S                     7.981213826075    -5.536465950835    -3.336401061012
S                     0.103580866753     0.318853585122     2.402891561284
Cl                    6.255708766865     0.903198091515    -1.571349985586
Cl                    2.469628279531    -5.992806368836     1.482304188032
H                     3.956604737202    -1.737575490842    -3.837331612401
H                     3.908521393919    -4.332186479147    -0.402618331699
H                     4.160348081178    -2.084798959450     0.540116166173
H                     1.699283619324    -1.476546814065    -2.934064791350
H                     5.435718055446    -3.352717012612    -5.020852949102
H                     5.411258669836    -5.916867946825    -1.580691074627
H                     2.755641486799    -0.503437232085     1.819577230625
H                     0.283890751561     0.111360988857    -1.635617060251
H                     8.338548389483    -1.839101610112    -5.052352513615
H                     7.816258563088    -3.705244625490    -1.219745670522
H                    -0.684161272146    -2.544669068823     0.031749902376
H                     0.741741150274    -2.220808207847     4.068599336392
H                     7.364471101138     0.285177583534    -4.152092218177
H                     6.829524699974    -1.609116876269    -0.326667003056
H                     0.685344978065    -4.612534331073    -0.294148470782
H                     2.106800565630    -4.289777714766     3.758128659135
