48
0 1 C24Cl2H16O4S2
C                     6.628051446855    -1.644023961010    -1.484925139255
C                     6.206844686109    -3.149752003644     0.347696896999
C                     4.098278732387    -1.171974774632     1.231249702618
C                     3.746406214437    -0.817177764120    -1.122249002874
C                     7.720104084641    -2.419109636267    -1.876243383755
C                     7.307985783736    -3.919978689084    -0.017741750801
C                     2.861629025047    -0.590556993929     1.518418384201
C                     2.513068870681    -0.229422784688    -0.855671522035
C                     5.480130581087    -4.820602254093    -2.841159868443
C                     5.642874888771    -6.697563699572    -1.309929251997
C                    -0.482586544005    -2.621909118603     0.915437309510
C                    -2.357901978479    -1.757880274421     2.200760382139
C                     4.235651522286    -4.485629084451    -2.305175052255
C                     4.397162137972    -6.366550172494    -0.771654728352
C                    -1.348333573672    -3.460722007225     0.209976654635
C                    -3.226432760738    -2.595044828949     1.497024511589
C                     5.823097512257    -2.019536285490    -0.396083363571
C                     4.561363169973    -1.310031457283    -0.086465000298
C                     8.027066010068    -3.577239722165    -1.163182717531
C                     2.072485323264    -0.124229298012     0.466467208197
C                     6.185546605156    -5.905516952779    -2.322222951189
C                    -0.994898141414    -1.783542284035     1.906118522401
C                     3.713404564537    -5.251982526090    -1.262469247718
C                    -2.712659999214    -3.438515329001     0.507853284702
O                     9.043313313912    -4.385264297488    -1.701562679735
O                     0.787616120637     0.408929743622     0.609685077895
O                     7.462954149815    -6.161900766006    -2.847950079907
O                    -0.095662497102    -0.998981495026     2.637999217369
S                     8.743038685565    -6.042770863018    -1.752516751176
S                     0.102805177630     0.600851866682     2.124473147678
Cl                    2.179707246732    -4.793255873417    -0.536188353619
Cl                   -3.805920150603    -4.491852769376    -0.375466222561
H                     6.387818899988    -0.747544721412    -2.049541125470
H                     5.597774395714    -3.473595190102     1.186092026672
H                     4.712280028326    -1.521626325245     2.056352165348
H                     4.062795421289    -0.926815106383    -2.155690247979
H                     8.312146897051    -2.162361764994    -2.749542391356
H                     7.552009573103    -4.823222099336     0.530842018050
H                     2.518420614441    -0.514933781616     2.543721783407
H                     1.870823476679     0.125691742735    -1.656021588441
H                     5.928516354340    -4.219826631263    -3.624982370575
H                     6.199572267204    -7.546646287988    -0.925430635922
H                     0.582174805745    -2.617124393516     0.705851769751
H                    -2.731541423099    -1.092962415122     2.973880227559
H                     3.692058185579    -3.621275489506    -2.671111555267
H                     3.967231970285    -6.961699710223     0.027611593710
H                    -0.967084089795    -4.120611243660    -0.562718113315
H                    -4.289660105131    -2.595542911707     1.714648073257
