48
0 1 C24Cl2H16O4S2
C                     4.384230491597    -2.650133785279    -1.154617735663
C                     5.659289595422    -1.655234146293     0.629932863796
C                     2.992293065023    -1.494210754649     2.076396085729
C                     2.056814036509    -1.050155259678    -0.102839642942
C                     5.556863684390    -3.111157008837    -1.755384664112
C                     6.839223179427    -2.104345479712     0.040569159185
C                     1.777664416417    -1.159274685621     2.674748823074
C                     0.837340558869    -0.715378880457     0.482933858883
C                     6.074905461350    -6.554943858332    -3.013173715117
C                     6.130169077910    -5.183252238536    -5.017234345375
C                    -1.198791745259    -3.461138099266    -0.540120129711
C                     0.253018743594    -4.009999490357     1.325717312287
C                     4.833982277610    -7.069188005624    -3.396708905871
C                     4.885813873036    -5.689170269261    -5.398679280855
C                    -0.310764058394    -4.082206530394    -1.420253270484
C                     1.150692606037    -4.615103507598     0.444562912415
C                     4.408369529199    -1.919078776096     0.044404519189
C                     3.146828484767    -1.471540279058     0.678352557405
C                     6.782095054592    -2.834247279458    -1.150106801573
C                     0.699068326464    -0.801881150705     1.866872152781
C                     6.716785167441    -5.621782620710    -3.828132946115
C                    -0.905618288780    -3.415792470158     0.823954418063
C                     4.250676260325    -6.634533640139    -4.589225053921
C                     0.866288531415    -4.643565875385    -0.921598874323
O                     8.022415865329    -3.279879251549    -1.625221945458
O                    -0.574661431289    -0.569664585517     2.415547966716
O                     7.989933782781    -5.195477004702    -3.443536617468
O                    -1.845439835444    -2.730838321214     1.610920539749
S                     8.278100571960    -3.543756812050    -3.259166990935
S                    -1.334745874558    -1.952122553794     3.011999793685
Cl                    2.701400007773    -7.290982997159    -5.086168556659
Cl                    2.005750684683    -5.391705735947    -2.031310859435
H                     3.434094349745    -2.905899778821    -1.611586858525
H                     5.716362892206    -1.066136649570     1.541046663201
H                     3.816633983537    -1.823637861367     2.702596218149
H                     2.158666139524    -0.993362887199    -1.182395909068
H                     5.500865141229    -3.686698647039    -2.671604388587
H                     7.807686738958    -1.892211681803     0.483455500611
H                     1.650256525529    -1.219752137068     3.751750936016
H                    -0.017950532378    -0.427207312808    -0.119828067649
H                     6.548377007278    -6.867770649493    -2.087887994375
H                     6.641394332715    -4.456531465881    -5.641348418897
H                    -2.108612976409    -2.992410235441    -0.902259135348
H                     0.481471594081    -3.964409804720     2.384162106511
H                     4.322349260013    -7.794478343486    -2.772580983782
H                     4.419678432491    -5.362645487872    -6.322751280747
H                    -0.524808244242    -4.116348028006    -2.483747071477
H                     2.070682776348    -5.051855584463     0.819154796638
