15
1 1 C3H7N4S
C                     0.805943321354     2.091922531389    -1.826407707182
C                    -0.146508865105     1.112246717492    -1.642316867079
C                     0.091291313422    -0.260192354530    -1.109283954833
N                     0.302119964533     3.264836008184    -2.322453820623
N                    -0.951514071683     3.276922659097    -2.532491129550
N                    -0.234494461409    -1.678952667933     0.875055748938
N                    -0.353627274872    -0.332832838329     0.356250131133
S                    -1.675057315109     1.727532622860    -2.130416178177
H                     1.872216133511     2.008399925720    -1.642209078973
H                    -0.472318325908    -1.044373421848    -1.616947635340
H                     1.152667892271    -0.516529155654    -1.119171969688
H                    -0.628121453162    -1.695059398739     1.818366573711
H                     0.759763264453    -1.903958870828     0.937974501237
H                     0.151137551708     0.389885894085     0.896024761043
H                    -1.350124573942    -0.082183210523     0.393686667067
