48
0 1 C24Cl2H16O4S2
C                     4.120653276206    -3.642710420978    -0.953603041056
C                     5.686090981780    -1.932251690237    -0.291002671018
C                     3.506604555406    -1.041522114493     1.620834531913
C                     1.989521449352    -1.633302417964    -0.155893008003
C                     5.146454043780    -4.338513544133    -1.594964201106
C                     6.719308353174    -2.613364525933    -0.933872668756
C                     2.489544541202    -0.346380023635     2.276955365137
C                     0.963659630603    -0.936430801353     0.481838911858
C                     6.723074962475    -7.818702737372    -0.752521998210
C                     8.954918758876    -8.137674990483    -1.658397430072
C                     0.366351668992     1.339196926955     6.886531870774
C                    -1.055683642791     0.153876191943     5.310267802732
C                     6.351043454560    -9.083828163640    -1.214763726381
C                     8.583931269972    -9.398768388037    -2.128445247073
C                    -0.454227323439     0.932626816266     7.940340633416
C                    -1.881631921207    -0.244481628198     6.364853487479
C                     4.370403567342    -2.430641005657    -0.287317073456
C                     3.280633852960    -1.695984527506     0.397647320359
C                     6.439158439984    -3.815954615250    -1.583146747932
C                     1.222315482060    -0.294638181956     1.693770947483
C                     8.020809442071    -7.358780519918    -0.973955979761
C                     0.059357977058     0.949684139846     5.581497587353
C                     7.284608766609    -9.861529953440    -1.902310076350
C                    -1.575969464506     0.145649666527     7.669866577353
O                     7.411144520536    -4.530369710545    -2.298107747729
O                     0.130342681239     0.341082218908     2.300747098444
O                     8.355655222883    -6.111134653019    -0.435017317550
O                     0.963140428383     1.354407437945     4.592306140604
S                     8.845131172619    -4.912659869033    -1.512606732527
S                     0.373091820292     1.806442157947     3.083795303189
Cl                    6.819746838647   -11.448682207724    -2.493592349981
Cl                   -2.614682431192    -0.363744455210     8.991633084336
H                     3.120265037650    -4.066365705844    -0.942496336377
H                     5.899542737866    -0.980313583563     0.186962028646
H                     4.484306009130    -1.105547175252     2.090143575193
H                     1.791809561388    -2.102570910394    -1.115517567123
H                     4.961955414427    -5.280897620856    -2.102062043005
H                     7.729486989265    -2.215436313019    -0.935971195070
H                     2.674350130380     0.129965250885     3.233660654673
H                    -0.029290202032    -0.870961483692     0.047040181539
H                     6.020697669745    -7.187236677860    -0.217165278329
H                     9.959094456315    -7.760545108856    -1.826655584371
H                     1.240677613764     1.957256821596     7.066345657239
H                    -1.275260101204    -0.160618719248     4.296000288419
H                     5.346113039292    -9.458253817425    -1.047927915756
H                     9.297806625679   -10.019363554818    -2.660499303190
H                    -0.228741151523     1.231082128071     8.959094321617
H                    -2.751868098738    -0.863640682115     6.171838650521
