48
0 1 C24Cl2H16O4S2
C                     5.239924477205     0.125016999457    -0.363339391222
C                     5.517910045020    -1.959123605334     0.814437361725
C                     3.160045886836    -1.028696562857     2.484070975556
C                     2.315687162837    -0.131310186517     0.410850699231
C                     6.499484059905    -0.028477221792    -0.941513881843
C                     6.777209902254    -2.133355794625     0.237961953292
C                     1.906832874593    -0.871069472885     3.075220981343
C                     1.054460920636     0.024938275110     0.987562184202
C                     9.759162452989    -3.669821222543    -3.053238975887
C                    10.506571408695    -5.496032298058    -1.632684767615
C                    -2.303588092134    -1.772243720866     0.118890318006
C                    -3.922106161391    -1.663602279531     1.927674227988
C                    10.130102411196    -4.404826354392    -4.182474731932
C                    10.867937656852    -6.233211723813    -2.761932043849
C                    -3.289613556300    -1.382980266184    -0.791472324932
C                    -4.907362048431    -1.266367648603     1.021839167055
C                     4.726394121178    -0.833649135066     0.528042025009
C                     3.389621148646    -0.663469559482     1.144921473463
C                     7.261189664018    -1.156853742216    -0.634193507649
C                     0.860554076113    -0.343185745947     2.318336864258
C                     9.957911279573    -4.221455608054    -1.785774723934
C                    -2.628423337692    -1.913638649158     1.467708263454
C                    10.679873971214    -5.678874560408    -4.030049909034
C                    -4.582947435254    -1.129842812266    -0.330765554637
O                     8.492514832599    -1.265629673940    -1.295131779695
O                    -0.411428740666    -0.103624730252     2.857765761529
O                     9.573206242051    -3.573393043060    -0.606260200653
O                    -1.615036818767    -2.366999921174     2.320261391813
S                     9.806420967753    -1.913086082315    -0.475094527141
S                    -1.195581343541    -1.379222711105     3.618106813411
Cl                   11.138208207235    -6.600084552982    -5.453697300980
Cl                   -5.824219553155    -0.631467313662    -1.469073784079
H                     4.665051967710     1.020962934263    -0.580101420641
H                     5.130309503263    -2.733860796230     1.470048152786
H                     3.981797509508    -1.410452120068     3.083422444926
H                     2.456498112326     0.132032571619    -0.633757227498
H                     6.905913414749     0.719468573612    -1.615794140148
H                     7.362090306409    -3.022164282465     0.448215896785
H                     1.742704366328    -1.149570369343     4.111756029259
H                     0.217701610015     0.424588282498     0.422433044263
H                     9.313862767143    -2.687269018292    -3.163378110440
H                    10.648129445279    -5.898785188938    -0.634423943157
H                    -1.287281456942    -1.973498868306    -0.205625039928
H                    -4.155582459388    -1.772264311152     2.982414342520
H                     9.981876667673    -3.991407997375    -5.174973832587
H                    11.298437208634    -7.223871642613    -2.656905136867
H                    -3.054157394687    -1.271843225122    -1.845095446916
H                    -5.919338828683    -1.070034293731     1.361253408812
