48
0 1 C24Cl2H16O4S2
C                     4.135076726056    -1.427465749486    -1.538019933601
C                     5.215707618802     0.013771524693     0.062961896117
C                     2.766397839123    -0.498224900062     1.781932521669
C                     1.550019836494    -0.429775198141    -0.299445508202
C                     5.328255351055    -1.553429013047    -2.251431560734
C                     6.413867187799    -0.093788781143    -0.642165530577
C                     1.568752244075    -0.388944635997     2.490029585033
C                     0.346498225949    -0.312656565436     0.395297704750
C                     8.506560238249    -4.589633647521    -5.316330855915
C                     9.439228092208    -3.563065747619    -3.319333497853
C                    -0.152824224690    -2.975452693515     4.858266897155
C                    -2.525161697092    -2.545672584610     5.159115476396
C                     9.471661289365    -5.596669087399    -5.255478053781
C                    10.410617207948    -4.566278707667    -3.264999709154
C                    -0.001684635650    -3.127368410895     6.239071398319
C                    -2.375697244971    -2.688571117028     6.539799991920
C                     4.053051189174    -0.646525580369    -0.372414134789
C                     2.780131379476    -0.524550153933     0.376759198282
C                     6.460862230521    -0.875576909114    -1.797356349284
C                     0.366672710223    -0.293078231040     1.790090481593
C                     8.498384455636    -3.580927113637    -4.351223221835
C                    -1.411822927173    -2.691019635858     4.330228190086
C                    10.420066243848    -5.574569472308    -4.230390595919
C                    -1.114856968752    -2.978864336035     7.068429694681
O                     7.712424622626    -0.976776684798    -2.420405501296
O                    -0.794973170854    -0.122620504039     2.556796222960
O                     7.465238523165    -2.642129403164    -4.453647571794
O                    -1.512617337238    -2.612879540311     2.936291219796
S                     7.789420404205    -1.031032647404    -4.096460230778
S                    -2.079412459331    -1.168697802421     2.281128165572
Cl                   11.639840241226    -6.836157740514    -4.152784360802
Cl                   -0.929121048996    -3.159749425888     8.805570910953
H                     3.262110708506    -1.978803218955    -1.876003830524
H                     5.176059921186     0.649838785344     0.942751754341
H                     3.698595609089    -0.599115969636     2.330759082316
H                     1.535889926535    -0.413302472500    -1.385614790802
H                     5.380307290580    -2.183312208271    -3.132798906808
H                     7.308318170525     0.429941169281    -0.318241417049
H                     1.550333961378    -0.379715716650     3.575771059609
H                    -0.596499643422    -0.232936791247    -0.136956814278
H                     7.761612708004    -4.577493782547    -6.106068739037
H                     9.413044043983    -2.786845743969    -2.562603143790
H                     0.692756639369    -3.081060732327     4.185560607669
H                    -3.496597179339    -2.317635117067     4.731192668374
H                     9.491207513287    -6.384881913551    -6.001205771155
H                    11.148829799289    -4.567886946003    -2.469395997195
H                     0.970540659460    -3.352389330208     6.665751036780
H                    -3.230825407846    -2.581402608708     7.199433392341
