48
0 1 C24Cl2H16O4S2
C                     5.635284804786    -1.392049215260    -0.761789298781
C                     4.079915182488    -2.873690566502    -1.852234084530
C                     2.196871860992    -2.154668353867     0.415107935183
C                     3.162243898466     0.046466389397     0.250093928233
C                     6.672763841345    -1.896967000513    -1.544593065989
C                     5.108352093963    -3.398767251759    -2.636732176623
C                     1.151918265126    -1.653698320566     1.193573989169
C                     2.132188360905     0.562181712836     1.035565616433
C                     8.624577948326    -6.403721765273    -3.563983870080
C                     7.227298461935    -7.671296303049    -5.097816096322
C                    -4.052208982476    -1.856183678019     2.498420409389
C                    -3.104539494356     0.281496060637     1.831980927480
C                     9.413646427569    -7.538091349903    -3.355364777245
C                     8.010603561049    -8.806523556935    -4.881022591443
C                    -5.318639238035    -1.424438347831     2.099553547231
C                    -4.374290225785     0.715933024248     1.442227761623
C                     4.318770857879    -1.865855074182    -0.902467721129
C                     3.218183221405    -1.321299079461    -0.071876526535
C                     6.401137835288    -2.896931272871    -2.479588918667
C                     1.133904707742    -0.293244191597     1.504355854376
C                     7.540499571888    -6.479771161037    -4.441091471901
C                    -2.956775616703    -1.001138167332     2.364334492607
C                     9.102097472369    -8.729350014147    -4.012996104482
C                    -5.470365351220    -0.137871502378     1.577544126548
O                     7.506199135900    -3.388914220810    -3.188579598295
O                     0.106466612960     0.312050096602     2.241785834957
O                     6.674231810678    -5.405380786343    -4.673463101888
O                    -1.716225741026    -1.530244108415     2.738266947940
S                     7.313179541640    -3.853787197992    -4.789104965042
S                    -0.602737298625    -0.531093853485     3.507034564807
Cl                   10.094937500733   -10.152978466841    -3.742085635974
Cl                   -7.062880774200     0.412432468123     1.080655610614
H                     5.857834704655    -0.632755532080    -0.017471240703
H                     3.069440350037    -3.244930890985    -1.997990422599
H                     2.224672413301    -3.219131014832     0.199988223113
H                     3.921627965113     0.721838954134    -0.133679275847
H                     7.690420852111    -1.534039621375    -1.435170035204
H                     4.905402245923    -4.182915150250    -3.357934049021
H                     0.367909196277    -2.311706998781     1.552089252769
H                     2.085858568021     1.618599377335     1.282854693779
H                     8.848286381154    -5.479679875565    -3.042514390072
H                     6.377569726978    -7.700115103438    -5.773037210541
H                    -3.906105668202    -2.848237312005     2.914691941757
H                    -2.244747195297     0.931383466783     1.712651334180
H                    10.259588751414    -7.496424195632    -2.676708853128
H                     7.780122554234    -9.738103946434    -5.387801064312
H                    -6.179161923356    -2.077812587286     2.201469098593
H                    -4.506695560414     1.709596388851     1.026251494264
