48
0 1 C24Cl2H16O4S2
C                     4.377881825598    -3.209720661787    -0.995707401539
C                     5.749453353918    -1.816735173288     0.421059755316
C                     3.117070241368    -1.214282355039     1.834295384555
C                     2.135103741037    -1.321172214516    -0.368094286590
C                     5.513427014444    -3.882495749601    -1.443162410288
C                     6.894578137265    -2.477239747567    -0.024728763269
C                     1.909375290626    -0.753767062227     2.358499747639
C                     0.922342791645    -0.864506643577     0.144113756132
C                     5.790572418185    -7.406140784877    -0.703929237194
C                     8.024843534576    -7.964710207070    -1.478621072312
C                    -0.991800888367    -3.946346859227    -0.163373615806
C                     0.500597243831    -3.901408225604     1.749685970605
C                     5.251558909149    -8.397665045857    -1.526126760459
C                     7.486572858050    -8.950593428401    -2.308970903888
C                    -0.107616430371    -4.787582903215    -0.840799171158
C                     1.394162029358    -4.729595860265     1.067066884897
C                     4.473052791156    -2.175853677741    -0.048712021684
C                     3.240794667278    -1.540163471728     0.471448940668
C                     6.763551081723    -3.513114800374    -0.950473471157
C                     0.809660383792    -0.621341952245     1.511562597097
C                     7.170696926634    -7.201738435353    -0.682180858185
C                    -0.679508560897    -3.499673836809     1.122560106156
C                     6.105315471153    -9.160456050639    -2.325385859253
C                     1.085007738623    -5.165963712141    -0.221483189739
O                     7.870492982890    -4.216789021779    -1.445254083757
O                    -0.462535373896    -0.305337790607     2.018207373344
O                     7.629927334844    -6.227077559797     0.213396689905
O                    -1.632232416352    -2.641268987479     1.693413985704
S                     8.760684814044    -5.104344058144    -0.323268055498
S                    -1.176478548954    -1.557392254016     2.896004942872
Cl                    5.432385445543   -10.400619171859    -3.372021852350
Cl                    2.215695599269    -6.204985596608    -1.084091843999
H                     3.403583357055    -3.529649942467    -1.349058451199
H                     5.852005256752    -0.998360098103     1.128464691932
H                     3.956516602737    -1.378091864698     2.504108201845
H                     2.216533292085    -1.529654165785    -1.430593112716
H                     5.440868357318    -4.703948106685    -2.148893654638
H                     7.877736799767    -2.201071321376     0.344775997549
H                     1.801186592145    -0.553124506202     3.420526505360
H                     0.051441507153    -0.740118767031    -0.491590510120
H                     5.149936479627    -6.787629724330    -0.083873243781
H                     9.095235986027    -7.785634707482    -1.461375816737
H                    -1.917207139803    -3.619454230884    -0.627426431813
H                     0.746030935916    -3.545598269367     2.743296856704
H                     4.180286742920    -8.569846091362    -1.548139569321
H                     8.135921016743    -9.553987811660    -2.935212608471
H                    -0.339578514238    -5.135505261456    -1.842319086929
H                     2.327470431163    -5.024728468364     1.535311694597
