48
0 1 C24Cl2H16O4S2
C                     4.722326806927    -1.925865055773    -2.888020468404
C                     6.489709537687    -0.908321304805    -1.598305187884
C                     4.359894864661    -0.608097747350     0.534090684572
C                     2.851658977141    -0.156431599277    -1.289654033549
C                     5.667715250222    -2.531473500606    -3.713725928565
C                     7.445343560878    -1.512589042133    -2.415104241041
C                     3.402608025246    -0.177387688874     1.453206733507
C                     1.886499377859     0.286566472625    -0.386793535927
C                     6.629312386188    -4.580747148163    -1.058450742176
C                     5.221497351956    -5.746290017221    -2.654147605005
C                     1.244607151436    -0.683654177500     6.325989522478
C                    -0.174076732902    -0.866553855577     4.359580189433
C                     5.509083014597    -4.312592153017    -0.271223794335
C                     4.101947020562    -5.491462535337    -1.859090226182
C                     0.342531984545    -1.460702290567     7.055257738351
C                    -1.080886511798    -1.636262201355     5.093153706423
C                     5.115210569287    -1.133210760623    -1.796653041021
C                     4.106209410700    -0.610696113290    -0.847658821255
C                     7.022908378739    -2.353710894970    -3.444149293551
C                     2.168726703192     0.271185788827     0.980107008655
C                     6.471949376811    -5.264953950716    -2.264319587032
C                     0.979694208097    -0.391428694367     4.986915068297
C                     4.250170234618    -4.752193854453    -0.684007032864
C                    -0.816772917095    -1.928528817432     6.432505306585
O                     7.941714239869    -3.103113007224    -4.201463843379
O                     1.125190762489     0.668594958274     1.827059457710
O                     7.520182977074    -5.497590095222    -3.171235545335
O                     1.961215495765     0.343256025972     4.311690413883
S                     8.717867096222    -4.324046553582    -3.331709365279
S                     1.483675534898     1.531880610106     3.221078551012
Cl                    2.838195523545    -4.341372704477     0.273943172519
Cl                   -1.956722982334    -2.902620118389     7.347565662001
H                     3.669171795103    -2.135985260310    -3.048402809483
H                     6.815556220815    -0.255746974913    -0.793084098172
H                     5.307279718943    -0.989196188176     0.904720666645
H                     2.635868183699    -0.121300487363    -2.353793996959
H                     5.369606009729    -3.198016955254    -4.516444137074
H                     8.506610938718    -1.365327200191    -2.237124334076
H                     3.603005990273    -0.215841028234     2.518270550367
H                     0.921210542918     0.650703376238    -0.725674102467
H                     7.603245177403    -4.209558053325    -0.760466673260
H                     5.129228441847    -6.283190865620    -3.593231330469
H                     2.150478709721    -0.300698488709     6.785901659106
H                    -0.361183232218    -0.650231387208     3.313571811091
H                     5.611594546501    -3.749237730565     0.650239790542
H                     3.120679219361    -5.839731742782    -2.165329660672
H                     0.534651559498    -1.693190715255     8.097756153047
H                    -1.981876082225    -2.014757799402     4.621047379490
