48
0 1 C24Cl2H16O4S2
C                     2.651300224146    -2.552895578364    -3.284663802008
C                     2.491937628718    -4.933757566452    -2.927252825411
C                     1.350191028016    -4.214670545485    -0.225245428036
C                     0.330186788230    -2.347307496172    -1.362619659701
C                     3.502585438616    -2.764194514554    -4.368516817748
C                     3.347205684881    -5.157417965865    -4.004754857356
C                     0.550277405806    -3.981445834209     0.892664866763
C                    -0.470413679540    -2.099999775914    -0.248849017678
C                     6.288173693488    -5.995176093179    -2.289804560410
C                     6.197789252219    -3.572746986479    -2.388609052492
C                     1.154680517248     0.706667417045     1.062875235168
C                     2.351772714643    -1.225738396054     1.911046876766
C                     5.808079341307    -5.964165244987    -0.978626365528
C                     5.706483614067    -3.540297104364    -1.084318072548
C                     2.132223794611     0.887570705302     0.081937603505
C                     3.322523658543    -1.053995461653     0.925208413244
C                     2.140042313814    -3.630358572906    -2.538301781078
C                     1.263565078470    -3.397408732149    -1.367163291651
C                     3.858983300151    -4.068932490488    -4.707734501921
C                    -0.342697960977    -2.910547335883     0.877006058007
C                     6.461223743225    -4.801964955531    -2.993012343855
C                     1.259638229018    -0.359302880377     1.957700885944
C                     5.504382227599    -4.734396391875    -0.392586666399
C                     3.200717764610    -0.007567959085     0.011116314537
O                     4.770695366142    -4.340188808054    -5.743840873963
O                    -1.123881996120    -2.582930338023     1.999804055778
O                     6.898222046246    -4.936905599344    -4.320048974304
O                     0.204812483029    -0.490416800358     2.874288520874
S                     6.348044295093    -3.823354227190    -5.458374529008
S                    -0.257299125757    -2.042669415424     3.338837689229
Cl                    4.847484763318    -4.687390527479     1.241258481004
Cl                    4.409418014466     0.179117309879    -1.256622855560
H                     2.419342109107    -1.534639523120    -2.988514094142
H                     2.091134179056    -5.784989677989    -2.385027036078
H                     2.082900377454    -5.014775073665    -0.190047597460
H                     0.223822883275    -1.716751277497    -2.240319336737
H                     3.921676982798    -1.926376045163    -4.917939824613
H                     3.642853828002    -6.161251825409    -4.292726385436
H                     0.647759648083    -4.594641108587     1.783677515271
H                    -1.174566398854    -1.274226977952    -0.230906777507
H                     6.504574993385    -6.937846565900    -2.782779038273
H                     6.327985700628    -2.647037484751    -2.936939954013
H                     0.296296110033     1.368388495647     1.124173503970
H                     2.429681385120    -2.055731842655     2.603683276490
H                     5.655431988808    -6.886908465028    -0.427998379820
H                     5.479413704719    -2.585166873753    -0.626849162978
H                     2.052249544394     1.703773333408    -0.628941011075
H                     4.157312778907    -1.742545173948     0.877106665178
