48
0 1 C24Cl2H16O4S2
C                     4.143788702769    -3.245598537997    -0.610406277640
C                     5.624858188075    -2.569051686696     1.173478018918
C                     3.029325537114    -1.954409403693     2.663985162813
C                     2.308514642006    -1.108116044854     0.521554820417
C                     5.209983747044    -3.848010720727    -1.277868145795
C                     6.698245327446    -3.166047068620     0.513909262785
C                     1.945224199676    -1.331505521410     3.282516903605
C                     1.225867996845    -0.474738491422     1.128729217036
C                     8.451866434418    -0.385473323455    -0.529757808030
C                     6.586821641673    -0.774562530666    -2.032871746994
C                    -1.626177078573    -2.151787867681    -0.119393597284
C                    -0.455440324609    -3.410881742686     1.594684472741
C                     7.683767173660     0.530204608225     0.192803986298
C                     5.813346744803     0.127088617109    -1.301716575149
C                    -0.967204519944    -2.879666062023    -1.111718720347
C                     0.216509294383    -4.128652345381     0.603956925093
C                     4.338336671942    -2.575058398381     0.610424798842
C                     3.215533228937    -1.873757282761     1.273235739077
C                     6.486964367405    -3.772991003272    -0.722541352213
C                     1.038080308873    -0.615962416098     2.502261854931
C                     7.891201078880    -1.050714764034    -1.620568376943
C                    -1.355145618987    -2.409665124832     1.225381582444
C                     6.359898240327     0.761694136843    -0.184771319662
C                    -0.038591306443    -3.853219803603    -0.740597000352
O                     7.614263334860    -4.260871224421    -1.408835764153
O                    -0.115503499189    -0.047614613984     3.072468778296
O                     8.713563208008    -2.010809010263    -2.233184869039
O                    -2.034157176648    -1.588477599775     2.137370000651
S                     7.994789137151    -3.417802131743    -2.818732957248
S                    -1.270781351672    -1.164885482793     3.577620258789
Cl                    5.357475013765     1.843013483849     0.767267870443
Cl                    0.828728818903    -4.740583119064    -1.988048934387
H                     3.148156116304    -3.306889832243    -1.039089984282
H                     5.802696116795    -2.036154905287     2.103082831136
H                     3.717714294868    -2.543637506644     3.263566501472
H                     2.448748851836    -1.010576947777    -0.550945386199
H                     5.059926796368    -4.346472094209    -2.231062529751
H                     7.705498820085    -3.113900607462     0.914209766551
H                     1.781680659775    -1.426586436882     4.352077033389
H                     0.507489972796     0.095667280864     0.549005083871
H                     9.471275714974    -0.615262965536    -0.235368037732
H                     6.156298784927    -1.296411753532    -2.879915547911
H                    -2.332341787852    -1.368268573507    -0.376296247599
H                    -0.240735122339    -3.599757313167     2.640360586004
H                     8.102352459296     1.037234249765     1.056318718945
H                     4.785948841031     0.323670066133    -1.589833193036
H                    -1.161957518827    -2.679943057237    -2.160572410465
H                     0.941034891799    -4.888515174527     0.878092331818
