48
0 1 C24Cl2H16O4S2
C                     4.400880465144    -2.209029749741    -1.498471239749
C                     4.671491144179    -3.540663263243     0.493919392565
C                     2.793401159505    -1.526647375583     1.773149322994
C                     1.668465973733    -1.537851194863    -0.360606153886
C                     5.502486677788    -2.841959047742    -2.075720426974
C                     5.769299758905    -4.186776683358    -0.073813452712
C                     1.693472777292    -0.894022629650     2.354417415340
C                     0.566199379680    -0.898073036689     0.205605920755
C                     8.929941949081    -1.313888958062    -3.005355989680
C                    10.657274124906    -2.999227313231    -3.288043191177
C                    -0.655036840167    -2.162267365071     5.174814264491
C                    -2.743050281291    -0.920785825289     5.206113598930
C                     9.298625273407    -0.727306921085    -4.218755264374
C                    11.022220092847    -2.420172054769    -4.504885874898
C                    -0.529179787763    -1.993228113459     6.556087293866
C                    -2.615568527848    -0.742790043007     6.585011776236
C                     3.967282342664    -2.542486784341    -0.203861784420
C                     2.800401628949    -1.863841009843     0.408744192925
C                     6.176676907175    -3.830242685694    -1.359510378456
C                     0.588686209612    -0.580586734352     1.563826181047
C                     9.613926010362    -2.440213398057    -2.548823041134
C                    -1.761013749648    -1.629765688535     4.512805874414
C                    10.339908178634    -1.288552789315    -4.960225348913
C                    -1.509792589288    -1.280997900907     7.248974613547
O                     7.235815383929    -4.470213755421    -2.018588227474
O                    -0.460217228456     0.110475791803     2.186871443606
O                     9.238655281738    -2.945191250214    -1.298228688777
O                    -1.859086590735    -1.888257362762     3.140543928588
S                     8.718985025414    -4.545777313588    -1.234112794750
S                    -1.995876730066    -0.565998371717     2.107260547628
Cl                   10.800534984960    -0.561677740335    -6.491281924267
Cl                   -1.352082196239    -1.056879879626     8.983824111490
H                     3.893936280432    -1.421773623069    -2.049461632469
H                     4.336137337369    -3.841031254326     1.482644036220
H                     3.665868205279    -1.740091268095     2.384297311288
H                     1.638408343034    -1.809680193299    -1.411963614227
H                     5.850085317163    -2.580550379393    -3.070719487775
H                     6.301323207412    -4.960655284230     0.471102737062
H                     1.685125583597    -0.622682929631     3.405863121271
H                    -0.308406473377    -0.662953833956    -0.393516917601
H                     8.121985335987    -0.905193311854    -2.406319719424
H                    11.174170899968    -3.880476663370    -2.920611482081
H                     0.091167226657    -2.707568959899     4.605208713983
H                    -3.594096905632    -0.506478783939     4.674425119598
H                     8.778723258631     0.151496423817    -4.586618999036
H                    11.832540741629    -2.839916963470    -5.092284427019
H                     0.323894050971    -2.404277328229     7.086393117815
H                    -3.370726468872    -0.196027199397     7.140575942840
