15
1 1 C3H7N4S
C                     2.112685958148     0.301326780812     0.861971493147
C                     1.368889700550     0.941692944828    -0.103177723678
C                     0.952969346055     0.383343956693    -1.429135330045
N                     2.307676578765     1.044943171075     1.995458505442
N                     1.773601769509     2.199996414291     1.992720055711
N                    -0.374085556884    -0.277798815885    -1.255906000360
N                    -0.951280143605    -0.622603420755    -2.552318208985
S                     0.935528062074     2.497396197482     0.479348365775
H                     2.541026488077    -0.692917122942     0.797425166377
H                     0.916924800190     1.173678153739    -2.193001167826
H                     1.665973152187    -0.381075670331    -1.752028018980
H                    -1.031867614958     0.367889865433    -0.811600045815
H                    -0.359625186340    -1.345821691164    -2.984299647460
H                    -1.047580034657     0.159038961229    -3.226003068843
H                    -1.877124961238    -1.048173374605    -2.401134888740
