48
0 1 C24Cl2H16O4S2
C                     4.876705304462    -1.130991587197    -1.153790605224
C                     5.088475726963    -2.852740901115     0.522166025387
C                     3.300977742734    -1.069026925534     2.204160642056
C                     2.179832725233    -0.583939865748     0.124314204495
C                     5.945312110917    -1.676693229413    -1.864345569730
C                     6.154714650612    -3.413297971121    -0.182580340797
C                     2.239553876610    -0.513610685128     2.917953102153
C                     1.107656417404    -0.031521340155     0.826471491800
C                     6.466295515198    -6.918404462886    -1.906470785086
C                     8.205497178192    -6.970051401924    -3.602087624391
C                    -2.630487922580    -1.188364572912     1.029566286770
C                    -3.769076912282    -0.319767802254     2.992189949552
C                     6.936356635713    -8.125507740589    -1.382422338775
C                     8.682553010704    -8.171821504695    -3.075633639024
C                    -3.717119796022    -0.819979498153     0.231941647044
C                    -4.852642521296     0.056943500198     2.196601054555
C                     4.428074527452    -1.705588638787     0.049580655492
C                     3.293017049490    -1.115365000042     0.797989226949
C                     6.577783591254    -2.817822158600    -1.370148031040
C                     1.147636438309     0.002727315843     2.219718732514
C                     7.100728496702    -6.353798007154    -3.012598166108
C                    -2.667117590269    -0.939691247360     2.401285709537
C                     8.043595786303    -8.740062561181    -1.970110070367
C                    -4.817908128245    -0.196779826976     0.822644111788
O                     7.692821326941    -3.388282711310    -2.000165780152
O                     0.071570820860     0.626232623901     2.867007502840
O                     6.545593291728    -5.177729570537    -3.530658972280
O                    -1.577287009925    -1.388205367254     3.156800083163
S                     7.541331560174    -3.822595159523    -3.615620553663
S                    -0.734589394357    -0.242066738581     4.057555535008
Cl                    8.644595552724   -10.252906682605    -1.310742766706
Cl                   -6.182997495031     0.276441513382    -0.175985528019
H                     4.406222858343    -0.223884214914    -1.522582373836
H                     4.744537178808    -3.334220491064     1.433333022976
H                     4.164885294208    -1.441124993359     2.747677756078
H                     2.133800885577    -0.632726935344    -0.960048975118
H                     6.288991208777    -1.220806422116    -2.787956566311
H                     6.662415796866    -4.305494214422     0.171611788413
H                     2.259204120896    -0.475478598669     4.002924232297
H                     0.240012679028     0.371203160368     0.312435115357
H                     5.609430169375    -6.413113475406    -1.471545396202
H                     8.691200750596    -6.513374945810    -4.458995875902
H                    -1.757921063400    -1.672149973179     0.601453578213
H                    -3.778163033159    -0.128196269680     4.060820881196
H                     6.451781507252    -8.579709822275    -0.524048626232
H                     9.538974276303    -8.666313525211    -3.522703057506
H                    -3.705784095197    -1.009445228227    -0.836650405951
H                    -5.718954759850     0.537831549402     2.639435600115
