48
0 1 C24Cl2H16O4S2
C                     4.281250203936    -2.521497308953    -1.296254519107
C                     5.777508313463    -1.839147992494     0.471419359662
C                     3.218116280488    -1.589383884542     2.107186441652
C                     2.210259943878    -0.823661576686     0.051871156714
C                     5.352462716019    -3.070840214263    -1.998401826130
C                     6.859292426229    -2.378426545228    -0.225142555986
C                     2.058168275076    -1.258846886833     2.807661982614
C                     1.044923580935    -0.491933242324     0.740027790885
C                     5.327765370001    -6.634600332343    -2.597399334155
C                     7.499604899925    -7.021510022668    -3.615938038823
C                    -1.125204140089    -3.101044649303    -0.574008886995
C                     0.382623587757    -3.861782001999     1.168800018291
C                     4.700033983945    -7.212143064751    -3.702811251712
C                     6.872933365862    -7.591031910259    -4.726883705350
C                    -0.321158268293    -3.705577218658    -1.541703340369
C                     1.196978546006    -4.452907856138     0.200468938274
C                     4.471290932676    -1.908278681984    -0.046211717573
C                     3.301425754744    -1.411938049676     0.714183141048
C                     6.633547491948    -2.998262665510    -1.454784459486
C                     0.965689300378    -0.748744715405     2.107313063175
C                     6.720053778652    -6.549279471385    -2.559883321097
C                    -0.764850541318    -3.173084088334     0.773432567984
C                     5.479249882039    -7.683336280532    -4.761316197510
C                     0.840789561300    -4.370637500711    -1.145912516543
O                     7.673678351929    -3.556821435366    -2.210720423304
O                    -0.270664697444    -0.541125010775     2.742400049502
O                     7.266443769291    -6.007840288100    -1.388881888567
O                    -1.636515259189    -2.508939737948     1.650648264835
S                     8.488222898497    -4.860364719663    -1.520288729301
S                    -1.078887169169    -1.967592022944     3.142190484646
Cl                    4.695245829789    -8.399069730887    -6.161089008165
Cl                    1.872285630354    -5.110695089565    -2.366739116186
H                     3.280436041227    -2.618935608355    -1.702901503370
H                     5.954630567048    -1.340525124712     1.420447573772
H                     4.046963291121    -2.045442341050     2.641192013362
H                     2.264079954424    -0.641740045641    -1.017236669432
H                     5.204942815519    -3.575075593752    -2.948186387935
H                     7.865496729797    -2.328232864397     0.180396315322
H                     1.977002963376    -1.445734645457     3.874592360957
H                     0.181746225219    -0.082364675972     0.225021771288
H                     4.747120209193    -6.245478501357    -1.767416338805
H                     8.581011005535    -6.936236184397    -3.579385578088
H                    -2.023783805748    -2.559877844112    -0.853781385707
H                     0.666071222196    -3.907653686172     2.213630665124
H                     3.618181448565    -7.288714657878    -3.741633512257
H                     7.463483263525    -7.963941720049    -5.557612136762
H                    -0.590494752106    -3.650347104308    -2.591608780777
H                     2.106240156380    -4.966493855149     0.495225936390
