48
0 1 C24Cl2H16O4S2
C                     4.624030748309    -1.487603977174    -0.872027325971
C                     4.715816567250    -3.095450230166     0.925813717888
C                     3.049335023933    -1.076107956917     2.486798185563
C                     2.012501731741    -0.658999805963     0.346721872113
C                     5.537622028412    -2.244341665633    -1.602971895870
C                     5.633159237517    -3.860266893560     0.205319858139
C                     1.979399569921    -0.457590694414     3.134296499481
C                     0.934364385512    -0.045485278974     0.981809662789
C                     3.283271679644    -3.472107461292    -4.186941453266
C                     3.102175993137    -4.658945490245    -2.077930874268
C                    -2.325181983149    -1.562814870480     0.620776298849
C                    -3.708320256356    -0.226012576239     2.105271132364
C                     2.099875461604    -2.786065683843    -3.908566347523
C                     1.927070574376    -3.961366548915    -1.790327732904
C                    -3.179926418461    -1.274135313876    -0.445035504706
C                    -4.559177705136     0.071593654857     1.038323386424
C                     4.168480312506    -1.917272366186     0.386299310871
C                     3.080980043386    -1.195174887818     1.085590129894
C                     6.005137727167    -3.445253876893    -1.072733250967
C                     0.924908560269     0.046729734436     2.372351585558
C                     3.783468696168    -4.396455395348    -3.267222205813
C                    -2.598560819923    -1.042606303346     1.886297856594
C                     1.434774205359    -3.030706589090    -2.705777160572
C                    -4.289679298388    -0.455400281769    -0.227390024518
O                     6.807836557207    -4.255613055067    -1.894031755069
O                    -0.179184695305     0.684132135648     2.955735577105
O                     4.990056237761    -5.006374078523    -3.644853488138
O                    -1.721113359330    -1.429736946324     2.907546244919
S                     6.021024674802    -5.631969567771    -2.472123842215
S                    -1.143572669546    -0.257466647386     3.966213695746
Cl                   -0.043778698344    -2.146494174661    -2.339322550737
Cl                   -5.361965124732    -0.077028728152    -1.566596159157
H                     4.244786121088    -0.561873149604    -1.294195474705
H                     4.377152693487    -3.450033966388     1.895214233297
H                     3.879259047775    -1.453365200915     3.078060959014
H                     1.995119170555    -0.767347405777    -0.732363315168
H                     5.855840928970    -1.942065255150    -2.595661389193
H                     6.014178439347    -4.796843758406     0.602210947221
H                     1.955739331859    -0.373049279736     4.216754069624
H                     0.091286603744     0.339476213700     0.416879710444
H                     3.832455900585    -3.287719948569    -5.105084937989
H                     3.497303964297    -5.368995550899    -1.361117950029
H                    -1.446419670648    -2.183043756672     0.477474110055
H                    -3.901214869543     0.182866482791     3.092008884930
H                     1.706313045346    -2.062246411001    -4.615026522897
H                     1.405113738033    -4.137954444645    -0.855551954444
H                    -2.980476876582    -1.676861867606    -1.432862722022
H                    -5.427421985562     0.704882602857     1.190048742886
