48
0 1 C24Cl2H16O4S2
C                     4.189656423405    -2.913123148290    -0.936382296970
C                     5.623628073314    -1.871714960359     0.704199704959
C                     3.035950338365    -1.599557607464     2.305545354592
C                     2.046199953479    -1.074511762655     0.167372687364
C                     5.307091966869    -3.439136212622    -1.585675315397
C                     6.748160952112    -2.393669637659     0.064938627004
C                     1.878060297833    -1.170625166366     2.954977409040
C                     0.886492713114    -0.637338481897     0.805158620343
C                     6.343864493642    -3.040378292176    -5.253041981200
C                     8.661943246424    -3.737400306242    -5.458268053261
C                    -1.579151094859    -2.999828384458    -0.173269499526
C                    -0.086297087077    -3.832286214620     1.550569730992
C                     6.003449445486    -3.833323147948    -6.351742868079
C                     8.322464900140    -4.537138119908    -6.551330853301
C                    -0.830461276297    -3.660889145153    -1.148556090092
C                     0.672855348122    -4.480965387484     0.575096018073
C                     4.328536230624    -2.119672346187     0.215112801016
C                     3.130716319311    -1.582712679741     0.902772156778
C                     6.578238255021    -3.176763240518    -1.077216403254
C                     0.801435768706    -0.717411201410     2.193932868974
C                     7.668431067750    -2.995414353299    -4.817881648217
C                    -1.195332799589    -3.077005303396     1.166614569329
C                     6.996337565475    -4.578838474757    -6.989963747683
C                     0.299238240072    -4.386267807983    -0.766622956884
O                     7.667005157422    -3.774851780848    -1.727592086504
O                    -0.417473754198    -0.367387713303     2.801703833521
O                     7.943734357995    -2.132733355223    -3.750182677018
O                    -1.992387695380    -2.340715525076     2.056055603856
S                     8.795035140859    -2.749465819414    -2.436060780440
S                    -1.284585383722    -1.670055378652     3.427980860682
Cl                    6.572954447032    -5.586322678077    -8.365025665383
Cl                    1.268806774537    -5.188364783614    -1.996132751293
H                     3.199642217221    -3.146914195600    -1.315071298704
H                     5.755217702441    -1.244404635317     1.581598412456
H                     3.859557743180    -1.994360515647     2.894032895203
H                     2.107372622070    -1.026240968929    -0.915837907242
H                     5.206274273007    -4.065111539980    -2.467123286910
H                     7.747469362235    -2.188184364016     0.437500979037
H                     1.792003674172    -1.222789582506     4.036491747264
H                     0.034939359260    -0.272875456953     0.239792176176
H                     5.595130864499    -2.451493582901    -4.732311280204
H                     9.686990910159    -3.698983453651    -5.103237559180
H                    -2.447285920270    -2.405932239995    -0.441998964161
H                     0.214096008173    -3.880058041862     2.591058669316
H                     4.977333748678    -3.876939632310    -6.702558523887
H                     9.082715298674    -5.119528120857    -7.061941410566
H                    -1.114434595378    -3.599772368259    -2.194281051703
H                     1.554072566620    -5.047532063774     0.857810488071
