48
0 1 C24Cl2H16O4S2
C                     4.054930641414    -3.475711248056    -0.795951619516
C                     5.622206015396    -2.708014828741     0.870609639056
C                     3.113646687069    -2.041310954023     2.472160948121
C                     2.208997925024    -1.360550857272     0.340363982555
C                     5.074450514715    -4.162230898985    -1.454316904961
C                     6.653827864582    -3.382017983400     0.215324429566
C                     2.038382016371    -1.441633580284     3.128252840643
C                     1.131985757715    -0.754252079599     0.984824104895
C                     9.734219658705    -1.983161972263    -1.739664285587
C                    10.704715152890    -3.445928186246    -3.419773856613
C                    -1.651677424549    -2.752218810935     0.028638213374
C                    -0.296375999916    -3.775806310701     1.763116805718
C                    11.012043247779    -1.675286983310    -1.265203294695
C                    11.982334590688    -3.145930306996    -2.943733626296
C                    -1.011618760119    -3.530037035596    -0.937911703777
C                     0.356032321793    -4.542493806038     0.796192844948
C                     4.308126225448    -2.737716746519     0.374451879808
C                     3.205959063794    -2.032025137542     1.068919010426
C                     6.370789342336    -4.107952023005    -0.941599973683
C                     1.041460068465    -0.824731144373     2.373725012090
C                     9.591952498201    -2.860975194853    -2.813814286825
C                    -1.281341702049    -2.868816378716     1.369451215780
C                    12.124942096807    -2.262503964147    -1.870037151094
C                    -0.001885590696    -4.410768686378    -0.546590929810
O                     7.441676717357    -4.811087817182    -1.512274970167
O                    -0.106356459432    -0.291982500833     2.987299637736
O                     8.295930922901    -3.088317492878    -3.290442687029
O                    -1.958349831833    -2.010945850198     2.249521342131
S                     7.698279620533    -4.658775761946    -3.164298693575
S                    -1.160116961112    -1.445801231826     3.619235469025
Cl                   13.732998703033    -1.884997255429    -1.272892885162
Cl                    0.834913122460    -5.365062790537    -1.764649297629
H                     3.041571973086    -3.548134314106    -1.178268125737
H                     5.849594621719    -2.125095364825     1.759009554464
H                     3.867998553615    -2.561507852799     3.055954274115
H                     2.273137563232    -1.315716376307    -0.742794445761
H                     4.863821225826    -4.736457902243    -2.351170331057
H                     7.674445844096    -3.354556649559     0.585259586085
H                     1.949433375753    -1.484890679235     4.209937002418
H                     0.344115473263    -0.261343606011     0.424475858800
H                     8.847653797425    -1.546087192551    -1.290611246330
H                    10.572860601776    -4.130969326631    -4.251892161386
H                    -2.422038499833    -2.039006651859    -0.247891471515
H                    -0.004755292251    -3.854837874052     2.804129047386
H                    11.141224564961    -0.991572516650    -0.432280952777
H                    12.859531739877    -3.588799788836    -3.404405925986
H                    -1.285013837342    -3.440402327308    -1.984392229901
H                     1.143887736365    -5.229948248509     1.086245044902
