48
0 1 C24Cl2H16O4S2
C                     3.684303885769    -1.918080517115    -1.618823014493
C                     4.395967486110    -3.822986384561    -0.320079952304
C                     2.908053619583    -2.520456011133     1.964415210647
C                     1.336284071599    -1.803525651340     0.279884015569
C                     4.617966857290    -2.231905945005    -2.605779928796
C                     5.337491938150    -4.143203922139    -1.296598607334
C                     2.011012322120    -2.156566594744     2.967967909981
C                     0.433741568114    -1.429937061304     1.274174686440
C                     8.263557653682    -3.065818913956     0.303961661356
C                     7.297480195987    -1.110511573609    -0.759213099850
C                     0.815448876420     2.047917680784     1.166045239160
C                     2.588973085322     1.220541181712     2.600263298204
C                     7.727585107283    -2.669047100123     1.531174992819
C                     6.751096228414    -0.719259689369     0.462292410211
C                     1.716719521353     2.152482349973     0.104241672712
C                     3.487687528325     1.312971937789     1.538377495880
C                     3.563558347302    -2.699253970055    -0.455023649058
C                     2.592865818851    -2.341106372923     0.605044788435
C                     5.451807589679    -3.335002420400    -2.425594412897
C                     0.785088182895    -1.595387561815     2.612068751581
C                     8.029194932618    -2.295646650588    -0.836213147307
C                     1.252018225390     1.564509582892     2.400476632688
C                     6.959761063990    -1.505305881309     1.595429637158
C                     3.044199132360     1.766405906306     0.296176719449
O                     6.460518712901    -3.658123148526    -3.350924650792
O                    -0.130507119911    -1.143895968761     3.579791039437
O                     8.565396863720    -2.800268218127    -2.031206679022
O                     0.265058592585     1.448085130183     3.391778796585
S                     7.712893013793    -2.537994246627    -3.460741709557
S                     0.385804899318     0.175711923254     4.489829907991
Cl                    6.234300639881    -1.024850629590     3.127136052368
Cl                    4.175870143444     1.842491770611    -1.051627789603
H                     3.074126253779    -1.027842116979    -1.735464444684
H                     4.306190865643    -4.458104824464     0.556213647968
H                     3.883183558125    -2.906380572902     2.244740276622
H                     1.056895926265    -1.678143715119    -0.762026742328
H                     4.729917453688    -1.604119890807    -3.484870756047
H                     6.000708820986    -4.995085011539    -1.184681286396
H                     2.275175270826    -2.265149017309     4.015749869200
H                    -0.527827605696    -0.990367929116     1.028757311304
H                     8.839778194589    -3.981686773329     0.216416658688
H                     7.112108335131    -0.515815179274    -1.646137040623
H                    -0.229796723169     2.312178111084     1.039104437206
H                     2.925410926991     0.840796941070     3.558048873532
H                     7.890884697031    -3.268459130847     2.421123713991
H                     6.162579100638     0.188637529582     0.513689059860
H                     1.384559209820     2.512291033765    -0.864346491516
H                     4.520214559506     1.022845378003     1.690219539325
