48
0 1 C24Cl2H16O4S2
C                     5.309914555777    -1.002840456334    -1.342045752469
C                     5.492121186336    -2.032642364549     0.829088341900
C                     3.639633932845     0.185865917430     1.753759613816
C                     2.575974748098    -0.092245636895    -0.390737260840
C                     6.401543015695    -1.745350654556    -1.790957374408
C                     6.581064331207    -2.789901356062     0.394272598533
C                     2.550156075570     0.931543325927     2.202651179938
C                     1.473558915489     0.645008847356     0.044505708455
C                     8.626395111117    -6.578951591193    -1.440245379124
C                     9.350770131158    -7.331995241714     0.755267538916
C                    -3.782789894101     1.495879594359    -0.239280631150
C                    -2.770262531419     1.169838422731     1.947123326725
C                     8.652681216459    -7.900218999398    -1.894900981555
C                     9.367401440625    -8.652519267065     0.302527679698
C                    -5.003695849159     1.028619604615     0.250730819465
C                    -3.995424986873     0.711300982662     2.438918808345
C                     4.835810738334    -1.129084284361    -0.024219742418
C                     3.675803359239    -0.337688176823     0.449165621708
C                     7.031158621878    -2.633494003685    -0.917787411962
C                     1.474271569022     1.157438414241     1.342953307260
C                     8.983058863034    -6.306456591488    -0.117839006933
C                    -2.677489860481     1.564920773524     0.610888151700
C                     9.021012135221    -8.925956800176    -1.022640515980
C                    -5.101119585604     0.642798971574     1.589561021321
O                     8.083740174942    -3.385889634377    -1.457292505459
O                     0.391993141239     1.865724960090     1.883398462906
O                     8.938619746238    -5.020410906211     0.432441917901
O                    -1.479927134585     1.990638367816     0.024958616682
S                     9.426936178746    -3.711966012165    -0.504660197662
S                    -0.433130462120     2.960712181848     0.914811499249
Cl                    9.045124518167   -10.585380611782    -1.598293535402
Cl                   -6.636416584949     0.058783655739     2.212003397576
H                     4.843221732876    -0.289886445777    -2.015897329608
H                     5.123800803492    -2.178130335687     1.840740736522
H                     4.488262079747     0.039622805120     2.416047409459
H                     2.560380170871    -0.516418869832    -1.390787831418
H                     6.779788540467    -1.637200231462    -2.803142803943
H                     7.056899161390    -3.503901285376     1.057599306627
H                     2.527428057250     1.350930378539     3.204091983717
H                     0.620721179751     0.799642164885    -0.607398450250
H                     8.322539270705    -5.778537277382    -2.105704459706
H                     9.621854048081    -7.089188618141     1.778173728315
H                    -3.679588791373     1.809031088657    -1.273717560219
H                    -1.901569678056     1.207665046937     2.595024011118
H                     8.377421599209    -8.129761198215    -2.919338249961
H                     9.654062995811    -9.458787730772     0.970013535457
H                    -5.871375947301     0.972640778597    -0.398714416787
H                    -4.084745231603     0.399295553908     3.474585000199
