48
0 1 C24Cl2H16O4S2
C                     4.939016624824    -1.696228070733    -1.564959234124
C                     5.014112157498    -3.392362016717     0.150796782751
C                     3.294398985192    -1.472559871249     1.778027479609
C                     2.294674594156    -0.958647581570    -0.358700316870
C                     5.875384369420    -2.405119810099    -2.314883353237
C                     5.953935762662    -4.109708563255    -0.589171988999
C                     2.205013442882    -0.899290858663     2.434456029381
C                     1.197197424284    -0.389980278132     0.285105525474
C                     3.688690078469    -3.520156598559    -5.006711010945
C                     3.476901907364    -4.813265661867    -2.964108414728
C                    -2.036674049298    -1.919783783018    -0.222815536245
C                    -3.464218074677    -0.676186598040     1.300194799077
C                     2.492558036080    -2.860305341172    -4.719959490341
C                     2.288602687838    -4.142328692261    -2.667265304796
C                    -2.873830295744    -1.585834190271    -1.289212694464
C                    -4.297685056364    -0.333170421638     0.232982459240
C                     4.464003543347    -2.194091675054    -0.339468535338
C                     3.354655060645    -1.520071094590     0.373403510961
C                     6.346092636622    -3.626491414643    -1.836939175066
C                     1.159445302937    -0.368512352461     1.677977246164
C                     4.179788644286    -4.484682121832    -4.123986716917
C                    -2.340912437207    -1.468270059148     1.061981005059
C                     1.805457269197    -3.171683541470    -3.545216923101
C                    -3.997347244257    -0.791352662089    -1.052292659349
O                     7.173765085518    -4.385717738856    -2.681676398358
O                     0.037107239539     0.226505901693     2.270940583499
O                     5.400565824070    -5.062740182883    -4.506002327685
O                    -1.479046118031    -1.898159480190     2.079488168714
S                     6.412993394513    -5.738083727542    -3.345121684481
S                    -0.937609876971    -0.777503226635     3.209795307524
Cl                    0.310349802598    -2.321208666646    -3.166454460987
Cl                   -5.047511044855    -0.356445879075    -2.391812299735
H                     4.557412195333    -0.754344749113    -1.947368547444
H                     4.660620214406    -3.799339826696     1.093967724820
H                     4.117246322197    -1.870248144632     2.365771430988
H                     2.299470913515    -1.011988681448    -1.442029097915
H                     6.209164186243    -2.049264392247    -3.284427085166
H                     6.337883171879    -5.061266276182    -0.232823208651
H                     2.159204455625    -0.869594126822     3.519099836961
H                     0.361010461151     0.014305951342    -0.276548624142
H                     4.254954478153    -3.284752179894    -5.902542167214
H                     3.864701874845    -5.554401735044    -2.275315360292
H                    -1.148072744919    -2.522429454610    -0.379795527157
H                    -3.681208666316    -0.320687972631     2.302486107052
H                     2.105951453169    -2.105743481234    -5.397511296791
H                     1.749360193239    -4.370667415099    -1.753753681739
H                    -2.650647240635    -1.934980916409    -2.292235748686
H                    -5.176098090738     0.282060311714     0.399723568312
