48
0 1 C24Cl2H16O4S2
C                     4.575449650359    -2.923326695640    -1.393689183062
C                     5.988283369506    -1.953955475482     0.306494418528
C                     3.360487456065    -1.283561198273     1.701668017751
C                     2.578391225247    -0.815384911730    -0.532476365990
C                     5.685259459170    -3.533811598430    -1.975521309521
C                     7.107106595537    -2.556554801733    -0.269159193572
C                     2.257598173898    -0.612301880369     2.231598364011
C                     1.477506201764    -0.132931738952    -0.016107873829
C                     6.857929112273    -0.559620214672    -3.218958471311
C                     6.028358033755    -1.858340784249    -5.094625088949
C                    -0.838476379542    -2.004984340830     4.152692585598
C                    -2.877841665380    -0.686125678495     4.074305930514
C                     5.652999451130     0.143789365210    -3.177489065271
C                     4.828874309916    -1.144699711169    -5.065172958691
C                    -1.006687352401    -2.188960836321     5.527670639294
C                    -3.045306911130    -0.862307330172     5.449040520359
C                     4.709059752161    -2.106962610275    -0.257322499514
C                     3.537153468935    -1.402350200010     0.312937505617
C                     6.947231788320    -3.321807358979    -1.423527099382
C                     1.325111965308    -0.038339100584     1.367412364781
C                     7.028708928275    -1.572227853536    -4.164060523899
C                    -1.776241686444    -1.260126024570     3.438290010636
C                     4.645961058443    -0.156742109880    -4.096227657394
C                    -2.107739691134    -1.612854401990     6.164084960818
O                     8.058458776036    -3.868262972884    -2.090147046595
O                     0.276582427982     0.672104646747     1.969756749327
O                     8.174066935894    -2.377471306278    -4.256485588911
O                    -1.596744194490    -1.156284850256     2.054271361179
S                     9.040211102475    -2.733582750648    -2.858013400588
S                    -1.288494130021     0.381290786158     1.437033834383
Cl                    3.121702134785     0.718877747256    -4.029277733648
Cl                   -2.320201467786    -1.834964116380     7.893380638100
H                     3.593682856215    -3.079280940031    -1.830922594226
H                     6.117321512502    -1.320679793954     1.179868844465
H                     4.073069111078    -1.748959616674     2.377230075555
H                     2.711670019781    -0.857719268504    -1.608940819011
H                     5.590949327348    -4.139969059328    -2.870713558392
H                     8.099290661123    -2.404206508443     0.145795925816
H                     2.107053766342    -0.526330279611     3.303614997907
H                     0.750022143900     0.323638691216    -0.679933929415
H                     7.633395392946    -0.348575923847    -2.491563230550
H                     6.189834665680    -2.650745498259    -5.818928151473
H                     0.007671788946    -2.437063015618     3.627316719421
H                    -3.594252303812    -0.105408348499     3.501012051890
H                     5.496767356954     0.913266825679    -2.428536563143
H                     4.040671501089    -1.365571748856    -5.777811891845
H                    -0.288358626501    -2.768556776307     6.098623231558
H                    -3.897531023558    -0.426214295897     5.960276009451
