48
0 1 C24Cl2H16O4S2
C                     4.453343554194    -1.708469834071    -2.514356819218
C                     5.202903181337    -2.875380472757    -0.543237507367
C                     3.212462630546    -1.107432808282     0.904744003360
C                     1.800943937935    -1.477813748976    -1.019478406975
C                     5.603938257156    -2.110373305568    -3.193580608692
C                     6.347260297888    -3.300046332634    -1.214655149801
C                     2.119706075942    -0.611384281794     1.616660233906
C                     0.701669613463    -0.981611676428    -0.318839159751
C                     7.597037584757    -0.083512916435    -1.150588516880
C                     9.016964617490    -1.408663490512     0.307534971428
C                     0.816025036234    -1.702224368211     5.053864674536
C                    -1.392904005792    -0.720906051754     5.293794230408
C                     6.867366257561     0.358615114048    -0.045547753635
C                     8.292312499095    -0.966560807618     1.416330463946
C                     1.168276593237    -1.230703374774     6.320811497013
C                    -1.040265339785    -0.241385856847     6.556930754713
C                     4.245425917502    -2.058187214329    -1.169951132186
C                     3.071999599198    -1.551068967356    -0.421441736594
C                     6.556298991209    -2.882918316367    -2.529870173035
C                     0.872717156091    -0.549915390384     0.996781625985
C                     8.652582207402    -0.975899266648    -0.967705952394
C                    -0.460592875483    -1.447737941040     4.552024594525
C                     7.217616127679    -0.094650932530     1.227642148112
C                     0.237027780886    -0.500021065101     7.060986213951
O                     7.724987279023    -3.167081848196    -3.255755618296
O                    -0.185598831108     0.009974900461     1.726664772235
O                     9.334918326181    -1.429096663066    -2.107775034880
O                    -0.756465574954    -2.004343660689     3.302004388857
S                     9.190051085203    -3.079443386851    -2.433874802300
S                    -1.455601080465    -1.013075309808     2.135919663503
Cl                    6.287512841112     0.437535724813     2.622277759323
Cl                    0.677360588265     0.105353134149     8.649958472707
H                     3.737296201210    -1.066698863314    -3.020283676619
H                     5.047861381336    -3.189610372000     0.484844278574
H                     4.188960782919    -1.122093927492     1.378455160728
H                     1.665130426896    -1.834498615063    -2.036788113446
H                     5.796018202027    -1.797939820077    -4.215612390960
H                     7.088896173648    -3.908323222346    -0.708272887785
H                     2.224557481303    -0.253297667610     2.636344109807
H                    -0.281159202300    -0.938884347365    -0.779297682432
H                     7.328754825065     0.227795506556    -2.154358933369
H                     9.847136074013    -2.097417306457     0.431313918467
H                     1.518005700061    -2.270433684649     4.451430049400
H                    -2.379678647302    -0.522549625947     4.887637301285
H                     6.024573638808     1.029426933243    -0.175707725859
H                     8.558304540602    -1.296602082699     2.415433548020
H                     2.157375179968    -1.422504564966     6.724298584231
H                    -1.753743346908     0.324541351118     7.147340266954
