15
1 1 C3H7N4S
C                     1.604906440750     1.822717944996     2.014726450944
C                     1.520253755980     0.773300575313     1.123582434193
C                     1.048239923931     0.848371141406    -0.303318995424
N                     2.033655003351     1.460793229670     3.267904447531
N                     2.284093907499     0.225937168486     3.423656948402
N                    -0.279610348231     0.218264956198    -0.538488057233
N                    -1.259493160377     0.739600157489     0.405242288649
S                     2.013926345585    -0.664142688770     1.926456982817
H                     1.407076398098     2.869620225357     1.806570171206
H                     0.990610271394     1.889900992470    -0.632968457114
H                     1.721571960176     0.332584961140    -0.992607645484
H                    -0.227877989407    -0.786043617638    -0.352959654319
H                    -1.485168206224     1.706123515236     0.132810604997
H                    -0.938284509122     0.747085321508     1.393520020983
H                    -2.129314817524     0.194779023818     0.327139066170
