48
0 1 C24Cl2H16O4S2
C                     4.556566665856    -0.534480903227    -1.808173798070
C                     4.567167330086    -2.859797628880    -1.175755295845
C                     3.209856818001    -1.903128017319     1.365533255903
C                     2.065397923338    -0.349296968278    -0.079654943008
C                     5.470327394532    -0.802695815275    -2.826823446391
C                     5.489244648153    -3.144658053418    -2.184365107110
C                     2.301043943391    -1.637785192241     2.389623169374
C                     1.144318802483    -0.079749953490     0.933435046500
C                     9.578073353496    -6.143536295066    -3.902624772253
C                     9.795903970271    -3.721938956957    -3.931981967335
C                    -2.614676583268    -1.022585931020     1.133314942656
C                    -3.582490069622    -1.132097409156     3.359413542646
C                    10.965726583874    -6.272301677435    -3.818010627361
C                    11.185263072632    -3.852270047712    -3.856908675970
C                    -3.717119616307    -0.289335505505     0.686566534161
C                    -4.682028318076    -0.393609365601     2.918046969690
C                     4.084836487531    -1.556619187972    -0.965566767627
C                     3.111699381164    -1.267345871267     0.114501701937
C                     5.929899441281    -2.107883105499    -3.008606801755
C                     1.271092811439    -0.724450344753     2.163530864620
C                     9.004398873320    -4.872138884952    -3.960856146807
C                    -2.559236497890    -1.441376859592     2.462306145179
C                    11.759671011658    -5.123369939491    -3.799641869664
C                    -4.740114270615     0.021107303040     1.584524832579
O                     6.890655788071    -2.287962377466    -4.013574517641
O                     0.346720762661    -0.361733794946     3.153742909414
O                     7.605765742043    -4.830186119243    -3.988009650983
O                    -1.464896270522    -2.227123840455     2.842165372222
S                     6.842855490795    -3.680355143752    -4.949953591944
S                    -0.426418218917    -1.585850532154     4.003664257641
Cl                   13.506364353380    -5.280431814988    -3.699182813908
Cl                   -6.125479338519     0.947220928382     1.029638019661
H                     4.222762121002     0.487697977792    -1.653743679701
H                     4.203438996054    -3.672883118723    -0.553797693611
H                     4.028871141379    -2.591615971149     1.553720465731
H                     1.947457666259     0.135835868105    -1.044624768492
H                     5.839429042211    -0.014127274518    -3.475839350282
H                     5.856948984927    -4.155036055532    -2.326686744695
H                     2.391220293980    -2.131095578607     3.352449505529
H                     0.327128128684     0.619949513520     0.785476912610
H                     8.936555521962    -7.019140880870    -3.926182523695
H                     9.339898248721    -2.738414248436    -3.958191144811
H                    -1.800831240654    -1.278673218023     0.461935613226
H                    -3.518386118679    -1.462291934762     4.391860575985
H                    11.424953212726    -7.254678827822    -3.775342057450
H                    11.815302245786    -2.968877969642    -3.832812516391
H                    -3.778202251130     0.041239423107    -0.345385476845
H                    -5.489083093430    -0.146744300821     3.600370068285
