48
0 1 C24Cl2H16O4S2
C                     5.536623867898    -1.896021805346    -1.631196753050
C                     6.006062744807    -2.369426330980     0.682545995752
C                     3.385895153696    -1.064659620723     1.337214629124
C                     2.642679736880    -1.969085144070    -0.769461257063
C                     6.781106249931    -2.413726152458    -1.993163321001
C                     7.259744835605    -2.865887896156     0.338845296879
C                     2.061580833072    -0.935549324414     1.752891255180
C                     1.313617664781    -1.835559996378    -0.371682039285
C                     6.488278970599    -6.177267241396     0.820162111917
C                     5.502955893929    -5.489451153927    -1.287881760861
C                     0.846641208187    -3.175355978394     4.402478934869
C                    -1.576640736381    -3.032006872748     4.522657799383
C                     5.270535161590    -5.942660758463     1.464750787276
C                     4.285249143200    -5.257891302949    -0.647464716457
C                     0.934135484618    -2.891676199204     5.767480728118
C                    -1.490788766715    -2.739408594854     5.885399180426
C                     5.101830233555    -1.917939346434    -0.295154071527
C                     3.703675990776    -1.609762144376     0.081622166261
C                     7.612735499709    -2.945523552336    -1.008099244825
C                     1.034591935658    -1.338402166286     0.900459038522
C                     6.601980187461    -5.920285484379    -0.546435484004
C                    -0.406438239728    -3.247810810952     3.794186847188
C                     4.182971793378    -5.463977007514     0.729342729315
C                    -0.236051919900    -2.672429677489     6.496846397266
O                     8.764566709892    -3.616833501915    -1.453414165682
O                    -0.273332644896    -1.203307357276     1.387582827308
O                     7.819436330447    -6.076699610224    -1.232267178100
O                    -0.421992715906    -3.597677419183     2.438309201490
S                     9.094488824848    -5.098662150139    -0.716200126445
S                    -1.236235620881    -2.584136285260     1.370392330991
Cl                    2.671514153289    -5.085494548937     1.538215422246
Cl                   -0.130133687992    -2.304895022259     8.211479669437
H                     4.883429765657    -1.504256914113    -2.405850931917
H                     5.698373184840    -2.408800057679     1.722641580780
H                     4.181278198758    -0.744009695934     2.003821510952
H                     2.858097095256    -2.403188477325    -1.741338882746
H                     7.093037138783    -2.459914776737    -3.032224375165
H                     7.914194527197    -3.275828431752     1.100205602278
H                     1.810320307220    -0.537557213352     2.731335335034
H                     0.504291742153    -2.154707433604    -1.021202773250
H                     7.349387920768    -6.525828496451     1.382158221138
H                     5.619885017691    -5.297544091250    -2.349123246060
H                     1.736715556708    -3.344524105824     3.804758940007
H                    -2.543018305806    -3.083276291472     4.030693510233
H                     5.171260014005    -6.119365639398     2.531092032630
H                     3.430664773410    -4.890801511124    -1.204943583795
H                     1.901015777686    -2.834873020926     6.257331959749
H                    -2.390244501121    -2.570338476335     6.468715045699
