48
0 1 C24Cl2H16O4S2
C                     2.925041631467    -3.617828511489    -1.754592547137
C                     4.857639277601    -2.346530962121    -1.079484696916
C                     3.286890887609    -1.799398998514     1.459302007223
C                     1.368721848101    -1.692206707894     0.003146523159
C                     3.664885160874    -4.206703797300    -2.779384688395
C                     5.615991238321    -2.933600226861    -2.093892433814
C                     2.551912183799    -1.213834628574     2.489951713088
C                     0.623325849340    -1.099046833453     1.022774962412
C                     8.488607347466    -6.180819477277    -3.877464474257
C                    10.392852708989    -4.672218458491    -3.776598700122
C                    -0.625434129795     2.556431711054     1.323238215133
C                    -1.076471590394     3.418977147098     3.549696402673
C                     9.358404914523    -7.272855084275    -3.815107831336
C                    11.260179145953    -5.763940281414    -3.704739712246
C                    -1.830102749861     3.097315418264     0.866276373443
C                    -2.283847347858     3.955066735214     3.097987368748
C                     3.504716246101    -2.674804880342    -0.887351787005
C                     2.713682060119    -2.049951171749     0.199375734722
C                     5.006680227622    -3.859152548904    -2.942680403461
C                     1.220173606914    -0.866818084791     2.261755956134
C                     9.016339274036    -4.887918422035    -3.864218626736
C                    -0.257231479143     2.725948302116     2.657548416562
C                    10.735040187337    -7.057931740725    -3.728432051793
C                    -2.650104945015     3.789785337429     1.759245765064
O                     5.698325457996    -4.537080649202    -3.956292922697
O                     0.393066891360    -0.321601069363     3.254369464722
O                     8.214833775735    -3.740697360941    -3.876121827794
O                     0.987288001156     2.221003180679     3.051694877671
S                     6.848511164825    -3.710201219081    -4.856688547695
S                     0.980917921738     0.958177450623     4.167693872068
Cl                   11.822783244465    -8.434671180977    -3.643957870554
Cl                   -4.167707181011     4.467228288513     1.191168346180
H                     1.888800521648    -3.912468356787    -1.614981024200
H                     5.325768583193    -1.604945493461    -0.438291304556
H                     4.314420884112    -2.096662417016     1.649095201746
H                     0.906814872899    -1.847073573246    -0.967967896991
H                     3.220489172489    -4.938510680443    -3.447414865383
H                     6.661374694274    -2.674412128559    -2.221553821459
H                     3.005506369341    -1.030697622190     3.459006348663
H                    -0.412835939441    -0.810408480619     0.873306960423
H                     7.416791385111    -6.338146190840    -3.926050383881
H                    10.773327867523    -3.655392426949    -3.767650761339
H                     0.034151525733     2.010361790446     0.655839293074
H                    -0.774187319100     3.535577446026     4.586134050269
H                     8.965081309350    -8.284355071668    -3.823550243504
H                    12.332547241849    -5.610520340309    -3.639528992241
H                    -2.130476636220     2.978143377772    -0.169828082192
H                    -2.932200833594     4.500484218132     3.776213894349
