48
0 1 C24Cl2H16O4S2
C                     4.708505677162    -0.196085985693    -1.451298176520
C                     5.322041799874    -2.131919480673    -0.154128090878
C                     3.107180326767    -1.253840140156     1.725874726535
C                     1.938079905157    -0.616581198885    -0.284416166321
C                     5.896140615244    -0.298689224008    -2.174854178409
C                     6.511681515235    -2.254861856751    -0.873800096085
C                     1.925427055795    -1.149758079083     2.459322288765
C                     0.750427890526    -0.499272268764     0.438924354607
C                     9.240148445198    -3.860987638213    -4.340177293158
C                    10.336084703950    -5.436509323546    -2.847433375403
C                    -1.330266574682     2.675618160687     1.268508043418
C                    -2.800887323668     2.463935502226     3.190781875093
C                     9.552897590187    -4.682447070396    -5.426636781833
C                    10.639674421143    -6.261097357234    -3.932359345564
C                    -2.370248608864     3.248253541773     0.531524127475
C                    -3.844352815009     3.028570395942     2.454913575837
C                     4.399620287826    -1.106792921907    -0.425447787999
C                     3.138141030126    -0.990947092689     0.344213566843
C                     6.791537645113    -1.327340092413    -1.878798288371
C                     0.752088162858    -0.771381768163     1.806571838114
C                     9.641986388681    -4.243728703310    -3.058673477671
C                    -1.552319952866     2.293399128908     2.591118535134
C                    10.248228359180    -5.874513010350    -5.216166690616
C                    -3.619809277042     3.416525433513     1.131042033661
O                     7.937328863655    -1.397835196547    -2.683162179796
O                    -0.486693869344    -0.696571673676     2.459894980218
O                     9.330895605694    -3.503690889809    -1.912046635395
O                    -0.459053747690     1.783725204722     3.301019505400
S                     9.401278005666    -1.824815920966    -1.980612036622
S                    -0.582571762738     0.203910050673     3.873434891644
Cl                   10.633518836033    -6.905457576207    -6.585161528095
Cl                   -4.932930885814     4.128419777289     0.206973351710
H                     4.030355561791     0.625571194722    -1.663872096407
H                     5.092230853118    -2.871719201472     0.607542068945
H                     4.025322562632    -1.521401144467     2.241229733210
H                     1.925328845797    -0.436142178963    -1.355644077461
H                     6.144951341659     0.414209741536    -2.955330581910
H                     7.198919196137    -3.068753964861    -0.669786903482
H                     1.917214537700    -1.341530185696     3.527906171263
H                    -0.181725719602    -0.219454689446    -0.042821136306
H                     8.683927156918    -2.942634546396    -4.492274804077
H                    10.634334700290    -5.708059339756    -1.839424217707
H                    -0.347482876568     2.527174613116     0.831773254772
H                    -2.956670850199     2.154546325602     4.219848835539
H                     9.247593031909    -4.400308779128    -6.429190773375
H                    11.181609443475    -7.189343988515    -3.782494009955
H                    -2.213440558211     3.554413885437    -0.497856100588
H                    -4.821176146778     3.171500880080     2.905719075387
