48
0 1 C24Cl2H16O4S2
C                     5.970351585877    -1.131955991497     0.782917847231
C                     5.451404825926    -3.447241482372     0.362294319149
C                     3.341267665689    -3.094162191669     2.518332495852
C                     3.050336121380    -0.894912435838     1.577423516478
C                     7.169217119607    -1.268926252167     0.084038389405
C                     6.643332036783    -3.600249553809    -0.347940445519
C                     2.140809694855    -2.959826455617     3.215232555738
C                     1.851438762933    -0.739460512915     2.275099519492
C                     9.283509628015    -3.600885815320    -4.214819561787
C                     9.272443426560    -6.030446241113    -4.311166406733
C                    -0.823970288088     0.627671589031     5.855649753119
C                    -1.684172329061     2.529572886569     4.608571867995
C                     9.501357862452    -3.553615785659    -5.594459836046
C                     9.480572850555    -5.981799699817    -5.690838204078
C                    -1.088991045992     1.300102447070     7.051732925993
C                    -1.939823300645     3.204160829672     5.803941180811
C                     5.090103915280    -2.217433332560     0.938590691056
C                     3.817346113185    -2.067829653915     1.683358216381
C                     7.498281231926    -2.504256413798    -0.475676458028
C                     1.402619201953    -1.782568216960     3.086886692952
C                     9.177575727170    -4.842377139588    -3.584087301730
C                    -1.131217556450     1.248132995689     4.642793445994
C                     9.597210021958    -4.741236965134    -6.321834856946
C                    -1.642919986222     2.581102353558     7.018160405009
O                     8.691102424179    -2.549012179653    -1.210894282073
O                     0.236100551286    -1.696582868178     3.860060011729
O                     8.912934685665    -4.980074341577    -2.216690177253
O                    -0.855134587087     0.664758375871     3.400998157044
S                     9.648280237213    -3.925641335039    -1.132021397800
S                    -1.129890337671    -0.982154892710     3.195112851889
Cl                    9.864169447032    -4.674902405691    -8.056786740095
Cl                   -1.968047919695     3.423731911645     8.524822741760
H                     5.733923103473    -0.176833089990     1.243356975567
H                     4.773176746876    -4.292822399349     0.435165127328
H                     3.924865794086    -4.002103663655     2.641470762749
H                     3.382889749937    -0.094264400328     0.922755216488
H                     7.858416799102    -0.436533129794    -0.022779851228
H                     6.892038197781    -4.548921419985    -0.810995593146
H                     1.772807696771    -3.749995628749     3.862947250217
H                     1.275374789781     0.175259285215     2.186613538509
H                     9.188565430767    -2.683092090274    -3.645176376196
H                     9.184969343531    -6.980538159626    -3.793051095308
H                    -0.376880326946    -0.360171090843     5.871476771435
H                    -1.911671141830     2.986284712888     3.650214005656
H                     9.585161196632    -2.597262044420    -6.100722890311
H                     9.559186792543    -6.897810277583    -6.267490706957
H                    -0.855771197855     0.832911790124     8.003198953677
H                    -2.372555334659     4.199344467483     5.791801733888
