48
0 1 C24Cl2H16O4S2
C                     5.062912181352    -1.931339304057    -1.741902895692
C                     5.162266880147    -3.314332132908     0.226739342928
C                     3.242169295043    -1.395294595592     1.502372704570
C                     2.331394761732    -1.151298889659    -0.715543639781
C                     6.018696205115    -2.738162287271    -2.360978133230
C                     6.133778817918    -4.112917927785    -0.368876759764
C                     2.055564940162    -0.906852711043     2.047035143287
C                     1.143273631504    -0.651128977593    -0.185778883654
C                     4.082180457833    -6.799607745745    -0.974207492397
C                     3.582624285495    -5.101321038076    -2.633757877901
C                    -0.113319685385    -3.248193416659     3.872976692973
C                    -2.283120676524    -2.215203924847     4.236607226913
C                     3.020909428670    -6.342245968101    -0.188127372115
C                     2.520421777439    -4.645099817241    -1.852622923945
C                    -0.005300720493    -3.509944515581     5.240891622642
C                    -2.172943785177    -2.467913078606     5.605552152396
C                     4.574049696173    -2.237826795656    -0.460650878597
C                     3.393428197669    -1.554304139860     0.114401217768
C                     6.508106521002    -3.857144552221    -1.687831790560
C                     1.007442197233    -0.553906614244     1.198213476279
C                     4.372200653149    -6.155609600403    -2.177416793136
C                    -1.251902986432    -2.608581319584     3.383094165802
C                     2.260460239425    -5.253743357967    -0.623596940384
C                    -1.035207617467    -3.113970252475     6.096374392458
O                     7.323179027674    -4.729752523178    -2.429419225438
O                    -0.166104080253    -0.091356550388     1.810687968962
O                     5.466818165250    -6.532044973982    -2.975643895825
O                    -1.321001681868    -2.434621164422     1.995307626435
S                     6.991258035764    -6.376551918115    -2.268129657657
S                    -1.596083474408    -0.882489762688     1.406879300754
Cl                    0.977282594086    -4.614742153648     0.389881200283
Cl                   -0.898754918567    -3.431607497319     7.818802757156
H                     4.668313186316    -1.074224228925    -2.280306829624
H                     4.800993052791    -3.584002040697     1.214048389919
H                     4.056930836019    -1.663474456775     2.168747536899
H                     2.415657432314    -1.272719960633    -1.791435581270
H                     6.349848477166    -2.543428846778    -3.376603881398
H                     6.523175985099    -4.981410307655     0.150844927294
H                     1.923755914164    -0.804323795667     3.119878674785
H                     0.315311357542    -0.382060236282    -0.834476821141
H                     4.697619761091    -7.628545383267    -0.638149578266
H                     3.831058555242    -4.618998786338    -3.573111113318
H                     0.671781658145    -3.536636203503     3.181222844418
H                    -3.157953271432    -1.710167677984     3.838923250448
H                     2.794380587145    -6.820302009042     0.759663593925
H                     1.918016468721    -3.804498944660    -2.178741815829
H                     0.872303482390    -4.009788036435     5.638389180558
H                    -2.965731623487    -2.170875866473     6.284608441407
