13
1 1 C4H6NO2
C                     2.248274738209    -0.423846746473    -2.350344274848
C                    -0.234135965016     0.170264725489     0.008279988189
C                     0.415029807460    -1.200898246274     1.825588726072
C                     0.094033388016     0.653377705566    -1.426305782457
N                     1.288966722313     0.071029382614    -1.968901482536
O                    -1.217021386865     0.599799105664     0.551617065540
O                     0.660754187170    -0.697258132938     0.466752334170
H                     3.153853613870    -0.890817461494    -2.710424617091
H                     1.238854619440    -1.882550583428     2.023413529870
H                    -0.544181935227    -1.718150665464     1.848232721635
H                     0.414134063903    -0.363796161115     2.523707613369
H                     0.224544966746     1.738906667866    -1.421735173053
H                    -0.734024910442     0.397255840350    -2.092748412970
