48
0 1 C24Cl2H16O4S2
C                     4.644416543627     0.179343009251    -2.871331367494
C                     4.622283108820    -1.951542512070    -1.730858062412
C                     2.816261334542    -0.389424737313     0.202704950119
C                     1.657089489220     0.123770289699    -1.855163424356
C                     5.840629714174    -0.166740632812    -3.504664020240
C                     5.799192238687    -2.318460580598    -2.379934747904
C                     1.667870744623    -0.089219187759     0.932160796355
C                     0.491510027558     0.398281406951    -1.135509876851
C                     8.040394317097    -2.934442481001     0.144894250183
C                     7.723294462294    -0.555317384812    -0.220889315323
C                     0.934981416724    -2.977228596359     2.637815608752
C                     0.289490912270    -3.118494976923     0.301672158902
C                     7.125249351537    -2.902241455053     1.198001614891
C                     6.802032192303    -0.522057263595     0.827846294193
C                     2.124697217184    -3.650870360026     2.357833952748
C                     1.482351358889    -3.786479852083     0.017851687367
C                     4.038892428473    -0.693542144729    -1.953370009692
C                     2.822208609043    -0.304458541505    -1.199139081305
C                     6.419079742077    -1.405548610573    -3.231257062989
C                     0.503535129869     0.263573669904     0.252204472161
C                     8.319164374251    -1.767822143640    -0.569772167244
C                     0.035013952079    -2.697974151553     1.607526958047
C                     6.503690971104    -1.695854699169     1.522326442570
C                     2.393652042517    -4.039130642887     1.044896704025
O                     7.668777393067    -1.750585704158    -3.778652945421
O                    -0.674655429072     0.441799755400     1.000742432738
O                     9.210251509744    -1.922162916132    -1.642036805332
O                    -1.101638275491    -1.969183660991     1.988014416158
S                     8.982427173614    -1.001393876344    -3.034230544180
S                    -1.754334744775    -0.849834041222     0.911820462652
Cl                    5.316324765085    -1.657088388531     2.820394324976
Cl                    3.911355042630    -4.850015643288     0.677076510063
H                     4.201570731884     1.154657863171    -3.055803575029
H                     4.161440593988    -2.643218285819    -1.033974348810
H                     3.711239965157    -0.706982293361     0.726753661019
H                     1.648818888634     0.197515457384    -2.939541749022
H                     6.338827578572     0.524762295785    -4.178146628569
H                     6.263834849154    -3.281307299754    -2.196984930287
H                     1.652743944175    -0.171681147670     2.013564610627
H                    -0.426351019413     0.682411515948    -1.642225250629
H                     8.518960971712    -3.863022366922    -0.150774171009
H                     7.934466591749     0.344997775718    -0.787191905726
H                     0.709810179332    -2.636435863844     3.643725202948
H                    -0.407361680420    -2.888306123554    -0.496609761254
H                     6.881936511752    -3.807195943940     1.744400548625
H                     6.314702855213     0.410203060410     1.094517619318
H                     2.842919096913    -3.851375086555     3.145651636985
H                     1.702484342391    -4.098908881901    -0.997843626437
