48
0 1 C24Cl2H16O4S2
C                     5.236262951915    -2.980221776124    -0.024083299366
C                     6.351768850680    -2.176614385856     1.957241274369
C                     3.333569105668    -1.961401131131     2.880400475324
C                     3.217017142379    -0.803320951935     0.762509053872
C                     6.428950352293    -3.526704838451    -0.491245317241
C                     7.563026201237    -2.684918153825     1.481922561303
C                     2.079663601543    -1.454969539215     3.231535161488
C                     1.979556037039    -0.269094083608     1.115003852471
C                     7.109641798885    -1.910434915073    -3.471155270402
C                     7.532412765131    -0.501668748306    -1.538150370491
C                    -0.156797371856    -1.360627318087    -1.343190844327
C                     0.354691011026    -3.111707861146     0.258663699155
C                     5.840755150340    -1.344853942464    -3.608920847378
C                     6.267408319357     0.073040531186    -1.677051297173
C                     0.810119016389    -1.864333160524    -2.214301312570
C                     1.327476503714    -3.613458478458    -0.608470113478
C                     5.178971925167    -2.286500774790     1.195592604432
C                     3.901550066264    -1.670670869957     1.629586604384
C                     7.596379478811    -3.335919726713     0.248293582694
C                     1.403250362196    -0.633857331951     2.330314869798
C                     7.936088800363    -1.499114195351    -2.424531765887
C                    -0.365395191768    -1.973552378706    -0.106028660609
C                     5.429321583578    -0.363679784463    -2.704689209269
C                     1.553850661449    -2.981524319369    -1.832582665470
O                     8.872848485353    -3.731177298664    -0.190097054362
O                     0.098077587807    -0.185956740115     2.607547317898
O                     9.195426054551    -2.083738472445    -2.219514925203
O                    -1.321572616453    -1.355158075819     0.712803962359
S                     9.184976863139    -3.730188996722    -1.840718018944
S                    -1.095912175897    -1.354028732275     2.382420721897
Cl                    3.819090016682     0.326928480099    -2.859636408260
Cl                    2.805262005210    -3.594679143442    -2.907477896390
H                     4.337611265238    -3.090512096606    -0.621218426409
H                     6.330783291204    -1.641746456380     2.903274022669
H                     3.854281428339    -2.627791976362     3.563156125795
H                     3.646434532057    -0.558026539293    -0.202799170122
H                     6.455515979621    -4.043957051262    -1.443318692194
H                     8.487996013768    -2.552929488040     2.035227532809
H                     1.613404492284    -1.718019572394     4.176742229294
H                     1.437781921622     0.384616500883     0.440001986954
H                     7.443052879735    -2.685394561485    -4.154668834934
H                     8.189923424089    -0.211877686722    -0.725089959619
H                    -0.732020836969    -0.476056449599    -1.598857479556
H                     0.197393429119    -3.576391154757     1.225709450061
H                     5.175942205715    -1.666695188033    -4.403488059935
H                     5.931400126716     0.834113832034    -0.980443216104
H                     0.997699817238    -1.382020084719    -3.167666816560
H                     1.909760764474    -4.484784184241    -0.326602977905
