12
0 1 C4H5NO2
C                    -1.263372002872     2.676074359069    -2.210341214914
C                    -0.190827784588     0.263014387802     0.034596124337
C                     0.402385096843    -1.259696195089     1.741181574236
C                     0.016586435239     0.551721318743    -1.454230961290
N                    -0.676387812382     1.708531599635    -1.880606486900
O                    -0.857221471502     0.918332549157     0.799924724348
O                     0.498059167051    -0.852095199568     0.355319456589
H                     1.008814073276    -2.161133798693     1.818756312726
H                    -0.637638107325    -1.467380914432     2.001106858320
H                     0.790066803801    -0.473279904401     2.392029585189
H                    -0.317038253284    -0.319242832002    -2.027190124745
H                     1.089283501069     0.666110021469    -1.639845847635
