48
0 1 C24Cl2H16O4S2
C                     4.287600769681    -2.171700964872    -2.744680951449
C                     5.308895969023    -3.907970075934    -1.421747111291
C                     3.583906555961    -2.827746088712     0.819379935082
C                     1.900540020914    -2.535008695421    -0.882460668525
C                     5.314810889629    -2.277985678458    -3.682887412224
C                     6.331839348996    -4.037150705186    -2.358613690076
C                     2.628795449815    -2.631627521578     1.817655423041
C                     0.931337624162    -2.348095176450     0.102888216118
C                     7.623285864511    -0.980748710108    -1.407777859533
C                     9.229647399712    -2.658427838999    -0.698626701623
C                     0.150934024861    -0.093987243764     4.886405138609
C                     1.543891980269    -0.871642571804     6.721204257534
C                     7.071799331113    -0.960315257091    -0.125467159926
C                     8.683922605994    -2.638730693736     0.586651756075
C                    -0.144708270853     1.064293821684     5.610559428251
C                     1.255330832358     0.290042082086     7.439541910653
C                     4.280111435746    -2.962910024141    -1.583909916721
C                     3.242171993847    -2.782139204815    -0.543122527743
C                     6.345245513868    -3.192881983646    -3.469620159065
C                     1.303323860966    -2.398434978985     1.447315567666
C                     8.683922881166    -1.841038345785    -1.688665186458
C                     0.988790256338    -1.056622249701     5.453452450684
C                     7.603073469982    -1.796720627534     0.858049189327
C                     0.408345701319     1.248771881919     6.878852911477
O                     7.385961231085    -3.170816765074    -4.413330549674
O                     0.286880835639    -2.141373310918     2.378214503920
O                     9.182549442606    -1.863368819726    -3.000898952289
O                     1.373069078659    -2.223213810404     4.782911554345
S                     8.960051285684    -3.312965125295    -3.837943214254
S                     0.253607495575    -3.016223347507     3.810610877942
Cl                    6.897089681100    -1.795709121171     2.468578857621
Cl                    0.037910546420     2.709654447286     7.781539817807
H                     3.514061233816    -1.422726560098    -2.890325331496
H                     5.306916962674    -4.557409909287    -0.551176043961
H                     4.619129371398    -2.975669687922     1.110166558920
H                     1.602476554250    -2.522479726445    -1.927236751896
H                     5.354208672724    -1.631440518532    -4.554392805420
H                     7.132501402411    -4.752389771732    -2.204225408055
H                     2.916857573033    -2.637822339887     2.863232125073
H                    -0.109296366927    -2.174437906448    -0.154471431636
H                     7.211695444332    -0.364264318901    -2.199570802353
H                    10.060761066842    -3.316261386015    -0.934038200680
H                    -0.258918503273    -0.235577464905     3.892553900221
H                     2.193514930104    -1.636882328253     7.134899919285
H                     6.226427005209    -0.318491834289     0.099501492553
H                     9.091942328859    -3.271767499379     1.368102538866
H                    -0.793492390140     1.822803301280     5.184306830508
H                     1.677771438563     0.444605283634     8.427179121600
