48
0 1 C24Cl2H16O4S2
C                     4.947263015552    -1.531677866441    -2.001005383298
C                     4.834822362307    -3.301700720515    -0.361408196034
C                     3.613453239604    -1.159685131341     1.410237962051
C                     2.437856527429    -0.503384600120    -0.593147184081
C                     5.891844458309    -2.257364658578    -2.725411582460
C                     5.777499978921    -4.037263927942    -1.079366005752
C                     2.709596512965    -0.435927830442     2.185525507830
C                     1.521991171765     0.218276375843     0.172559370169
C                     8.736086180742    -0.400692465326    -2.119015901857
C                     8.284343190846    -1.829759595011    -0.210555796758
C                     0.972127714832    -2.883162526358     4.061521490655
C                     0.231901964045    -2.742281852480     1.753658239337
C                     8.072941387898     0.655603292620    -1.490550319464
C                     7.607116627293    -0.780379378860     0.410802507063
C                     1.797178958500    -3.961348006546     3.736674793703
C                     1.068275652648    -3.809916375187     1.423604745554
C                     4.425146335940    -2.028305699098    -0.795630668246
C                     3.482187969649    -1.222728875297     0.012862779253
C                     6.322774580420    -3.490710601464    -2.240686040669
C                     1.653630633509     0.224428801765     1.560475129318
C                     8.814892986657    -1.642436090705    -1.487595663800
C                     0.208059186304    -2.270341920029     3.066994889853
C                     7.491170280863     0.450135497700    -0.238288429172
C                     1.849446019144    -4.406385389831     2.414889183423
O                     7.360367358328    -4.136959850786    -2.937480894833
O                     0.701409644574     0.864845163531     2.374096838458
O                     9.429444568685    -2.663028833758    -2.231946398570
O                    -0.545802884400    -1.166480354113     3.491822386909
S                     8.818519379872    -4.227214532510    -2.095179437201
S                    -0.802669296659     0.107043389661     2.420376698180
Cl                    6.579873650732     1.742570468619     0.523096112544
Cl                    2.923016439042    -5.734687282992     1.991856300917
H                     4.663333761058    -0.540354825095    -2.342228844896
H                     4.406201410791    -3.727432427963     0.540736510034
H                     4.429159504779    -1.686370652905     1.896701681643
H                     2.316932554943    -0.540907884074    -1.672292020218
H                     6.343586754983    -1.853912243051    -3.625794011997
H                     6.107717422388    -5.011024318514    -0.729651869350
H                     2.790774683671    -0.405783054840     3.267187512955
H                     0.693057196149     0.742271846223    -0.294399353697
H                     9.163635278527    -0.281708033153    -3.109814226956
H                     8.346954750482    -2.797526910795     0.273870140772
H                     0.931457048875    -2.495439935169     5.074726104915
H                    -0.355413269125    -2.256019828782     0.983078851995
H                     7.986502206156     1.619540010994    -1.981777671139
H                     7.158516330890    -0.923372051904     1.388303857716
H                     2.404045231104    -4.438286610430     4.499664340482
H                     1.118797889026    -4.166277009105     0.399917686388
