48
0 1 C24Cl2H16O4S2
C                     4.108323251402    -1.433502576646    -1.533077836503
C                     5.193534680917     0.011293816449     0.061570424641
C                     2.750858365119    -0.499789296066     1.790249414677
C                     1.526912985500    -0.435947066033    -0.286820578230
C                     5.299003392660    -1.559686808736    -2.250614235949
C                     6.389222918255    -0.096457421816    -0.647712990528
C                     1.555686938121    -0.390319824690     2.502485638682
C                     0.325802872546    -0.318667801586     0.412057937661
C                     8.468809360469    -4.598274703904    -5.321992634019
C                     9.407747096523    -3.567645226033    -3.330036016979
C                    -0.155459035065    -2.974419612598     4.881153483426
C                    -2.527075847482    -2.546222844241     5.189716910763
C                     9.434973184636    -5.604396937379    -5.262941849624
C                    10.380173701228    -4.569949176052    -3.277529339602
C                     0.000702927256    -3.124000007445     6.261653236727
C                    -2.372611025269    -2.686786286965     6.570089867912
C                     4.029853806543    -0.650686701864    -0.368484136732
C                     2.759547349083    -0.528511230567     0.385082012783
C                     6.432675108968    -0.880137337148    -1.801761442640
C                     0.351003450217    -0.296681255790     1.806732448689
C                     8.463231589247    -3.587989089349    -4.358519670677
C                    -1.416562047768    -2.691925021023     4.357114403552
C                    10.387019941974    -5.579815565838    -4.241292942943
C                    -1.109655082687    -2.975141516148     7.094711683023
O                     7.682055698141    -0.981342161183    -2.429171660464
O                    -0.807999333570    -0.125912362006     2.577356604423
O                     7.428932923600    -2.650229285890    -4.458783125496
O                    -1.522371099835    -2.616096683747     2.963420442019
S                     7.753029495981    -1.038275898061    -4.105402309618
S                    -2.092622167163    -1.173401473435     2.307981183751
Cl                   11.608129042871    -6.840250233016    -4.165984506402
Cl                   -0.917612545352    -3.153096694663     8.831468944187
H                     3.234597134291    -1.986124565585    -1.866974802576
H                     5.156547564605     0.648802116605     0.940432873345
H                     3.685117539619    -0.598946130210     2.335877480093
H                     1.508841345626    -0.421346823369    -1.372958358911
H                     5.348383489989    -2.190999099934    -3.131112598957
H                     7.284407509932     0.428549475551    -0.327907468523
H                     1.541183466093    -0.379250718051     3.588269087594
H                    -0.619176955982    -0.240672742930    -0.116926133911
H                     7.721030785064    -4.588059059563    -6.109077624782
H                     9.383611890164    -2.790203569167    -2.574491977678
H                     0.687828978226    -3.080362017321     4.205628240481
H                    -3.500218116738    -2.319712100576     4.764873554266
H                     9.452517425335    -6.393817864519    -6.007440060792
H                    11.121228445158    -4.569628690458    -2.484570831058
H                     0.974629685851    -3.347493620785     6.685243570382
H                    -3.225494085035    -2.579306823532     7.232572744735
