48
0 1 C24Cl2H16O4S2
C                     5.613883999953    -1.428020242534    -0.774572786120
C                     4.050719428005    -2.892956453505    -1.876422928291
C                     2.179642263771    -2.198793134107     0.408751850119
C                     3.147938079418     0.002527821326     0.265912103998
C                     6.646616629146    -1.925439253330    -1.568296918836
C                     5.074505432726    -3.410410399252    -2.672067884322
C                     1.139356778210    -1.705686584197     1.198345664746
C                     2.122519869925     0.510224220860     1.062700723108
C                     8.590123172514    -6.408441687319    -3.633582219930
C                     7.183910407499    -7.669824534224    -5.164315002332
C                    -4.051824148933    -1.927956803326     2.552100944697
C                    -3.113677215303     0.216755382953     1.895598077278
C                     9.381054831797    -7.543366886853    -3.435246813041
C                     7.969118316736    -8.805643831573    -4.957791133744
C                    -5.322696677839    -1.494823631819     2.169196432635
C                    -4.387752906782     0.652609742431     1.521811087468
C                     4.295809842833    -1.897512825638    -0.915313577295
C                     3.200078523831    -1.361240316968    -0.072996874066
C                     6.368978402669    -2.913173351332    -2.514546508081
C                     1.125064294428    -0.349093734332     1.525912750612
C                     7.500551629706    -6.481104592356    -4.504141523650
C                    -2.958826485317    -1.070223538085     2.415247362310
C                     9.066027065615    -8.731794278392    -4.096323210923
C                    -5.481307391827    -0.203942896702     1.660033984681
O                     7.470359609163    -3.397801058841    -3.234229245002
O                     0.101888102941     0.248284771893     2.275738733812
O                     6.632086565964    -5.406308444577    -4.726223043477
O                    -1.714010271840    -1.600680002912     2.772825304900
S                     7.268627487844    -3.853322379313    -4.836242546938
S                    -0.594953466989    -0.606572452250     3.540107865302
Cl                   10.061291508786   -10.156088420141    -3.838112429251
Cl                   -7.079318420683     0.348320897474     1.183346200211
H                     5.841339097392    -0.678490042936    -0.021881625831
H                     3.038870597510    -3.260451970789    -2.022158649616
H                     2.204681447684    -3.260587614783     0.180507775918
H                     3.906606005255     0.681325702521    -0.113207383397
H                     7.665519709366    -1.566022890901    -1.458924271014
H                     4.866500307166    -4.185282165205    -3.401776724891
H                     0.355983018352    -2.366662496618     1.552798254979
H                     2.079266755678     1.563612165908     1.323105642832
H                     8.816652479715    -5.486759070703    -3.109177616188
H                     6.329933559606    -7.696012969327    -5.834260902399
H                    -3.900303293005    -2.923393303176     2.958226022644
H                    -2.256059294818     0.869056112352     1.773821108171
H                    10.231243945636    -7.504340374489    -2.761760521639
H                     7.735901167402    -9.735008794220    -5.467380230824
H                    -6.181232837203    -2.150419177284     2.273584659766
H                    -4.525536787998     1.649691951655     1.115888652642
