48
0 1 C24Cl2H16O4S2
C                     5.453688320842    -1.368689761525    -0.347492830391
C                     4.851360446625    -3.233823159702     1.058341488249
C                     2.443750905376    -1.541834163559     1.805676105141
C                     2.438793795521    -0.942989926420    -0.532432105608
C                     6.741961540545    -1.883548452894    -0.501513921638
C                     6.135534871325    -3.759142329833     0.918920465038
C                     1.127775449198    -1.098494264346     1.927434463085
C                     1.119917844967    -0.501194610817    -0.424575227696
C                    11.119133511958    -2.230506385669    -3.489145549280
C                    10.109178130440    -4.277242157533    -2.650393701249
C                    -0.728499136173    -4.048745872181     2.571822617324
C                    -0.111903919383    -3.806802744105     0.236216875020
C                    11.653832057100    -2.931562672161    -4.571464046361
C                    10.652991710702    -4.979805000960    -3.729352653307
C                     0.354397211838    -4.906060298951     2.774832124803
C                     0.980652918449    -4.651051647958     0.441045196323
C                     4.488450424500    -2.029278004013     0.430694553584
C                     3.114957760651    -1.491378323045     0.571886082031
C                     7.072662741942    -3.078392245115     0.140755772181
C                     0.467270837877    -0.607561235744     0.802718605392
C                    10.353590759222    -2.906933928677    -2.537353051008
C                    -0.946738294983    -3.493442970949     1.309879070122
C                    11.418598859013    -4.303979000147    -4.681110940273
C                     1.209268162838    -5.189503170796     1.708493520043
O                     8.323808835626    -3.694596632784    -0.004523465006
O                    -0.889740194280    -0.261344627323     0.932961409724
O                     9.808541597799    -2.118118861817    -1.518228129118
O                    -2.035413739686    -2.612347955344     1.227950600216
S                     9.707779372292    -2.745301364103     0.039524452244
S                    -1.956735746088    -1.312618567624     0.160982872545
Cl                   12.092996372405    -5.190438443890    -6.039560064417
Cl                    2.598521851313    -6.237134382182     1.968071954924
H                     5.203168653668    -0.426724380394    -0.827696357122
H                     4.118384889299    -3.782541085560     1.641400062270
H                     2.954217346520    -1.936550757647     2.679218433715
H                     2.934983691701    -0.901173104958    -1.498090168656
H                     7.475494797733    -1.365822769357    -1.109956046933
H                     6.415684895642    -4.693561104179     1.395993818607
H                     0.595968174874    -1.162942444619     2.871175747060
H                     0.587618218873    -0.114584212539    -1.288882678388
H                    11.291319108387    -1.164689004586    -3.374452887164
H                     9.497434997705    -4.790730592142    -1.916877547069
H                    -1.395166714627    -3.787336087268     3.387802578243
H                    -0.279011107957    -3.363944025730    -0.739017877345
H                    12.253090084358    -2.418523879429    -5.316770607469
H                    10.472189214829    -6.044945209842    -3.832885248515
H                     0.539413053705    -5.335280818832     3.754355641499
H                     1.654304397809    -4.879030858382    -0.378510393842
