48
0 1 C24Cl2H16O4S2
C                     3.955902603711    -0.578133918604    -2.728348558313
C                     4.690805154558    -0.794762605950    -0.443621336820
C                     1.796993545389    -0.225757735077     0.269091940440
C                     1.847010597451     1.292059514396    -1.601972200742
C                     5.140674814794    -1.161969324771    -3.179809745470
C                     5.883690668301    -1.372331320959    -0.877264783329
C                     0.606765728935     0.347069753212     0.720066115226
C                     0.652717429993     1.869334409050    -1.171517412061
C                     7.629126239924    -4.106319336682    -6.878593815731
C                     7.849235362826    -4.726287629556    -4.537771507986
C                    -2.013441211794     3.273891066358     3.261073552924
C                    -2.645730168327     1.505059728859     4.804983101877
C                     7.870520738235    -5.428399010737    -7.256767711076
C                     8.100053597074    -6.047518053565    -4.917984778217
C                    -2.238694995538     4.220957398294     4.263769199914
C                    -2.861284610060     2.451290500563     5.808685037542
C                     3.705700707452    -0.383762964501    -1.359047909325
C                     2.439992403070     0.231682530131    -0.894003796233
C                     6.101092906892    -1.550303830027    -2.244190791918
C                     0.039655047888     1.390958734490    -0.012890994982
C                     7.622029259140    -3.764893485968    -5.524909323816
C                    -2.226422661633     1.922213685393     3.540382370688
C                     8.107950450380    -6.389386592766    -6.271439152130
C                    -2.659205300865     3.804499928929     5.528123678488
O                     7.297409849091    -2.188335290649    -2.600777844890
O                    -1.126643782566     2.056372057119     0.390788405818
O                     7.316580436570    -2.431162271669    -5.230538810276
O                    -1.980882684306     0.906728338523     2.609174220315
S                     8.123205031248    -1.668446145463    -3.966856995314
S                    -2.405745122933     1.155919998445     1.000613604546
Cl                    8.416619575573    -8.053258959053    -6.742591229675
Cl                   -2.934915205586     4.998953754588     6.786323879019
H                     3.196970581404    -0.304253114911    -3.455876146295
H                     4.540567341694    -0.629251865644     0.619475343135
H                     2.220632685058    -1.058201351540     0.823864838945
H                     2.333829955879     1.685419573288    -2.489860470580
H                     5.304919625626    -1.330207243333    -4.238588260010
H                     6.652951848752    -1.674685832707    -0.172912183198
H                     0.126952650317    -0.014187770195     1.623249474448
H                     0.194668616285     2.690289022050    -1.715161576239
H                     7.448387419944    -3.336935455910    -7.623010142017
H                     7.822330305360    -4.455664705360    -3.488036928316
H                    -1.668931517384     3.586641851796     2.281561424122
H                    -2.802117803561     0.447121029136     4.992312474758
H                     7.881889253339    -5.706741497997    -8.305660385680
H                     8.277634890723    -6.807547801078    -4.163822029022
H                    -2.077617373813     5.275489085798     4.063858501263
H                    -3.190649194491     2.140966082596     6.795092774033
