48
0 1 C24Cl2H16O4S2
C                     4.274935241234    -1.394350120106    -0.846896933074
C                     5.200507305057    -2.927464580964     0.765783279654
C                     2.464792822225    -2.801546546179     2.072313949224
C                     2.490937949466    -0.479219288869     1.429265798686
C                     5.345356490509    -1.634098131152    -1.710003384335
C                     6.281232581851    -3.172820039490    -0.080607961094
C                     1.385963576794    -2.558822527168     2.921856307968
C                     1.416510696412    -0.216532990938     2.280618509709
C                     7.195385043801    -1.958720864434    -6.738568906071
C                     7.554656385216    -3.824694045678    -5.221568880840
C                    -1.115916021688     3.245823639399     5.482583380959
C                    -0.560286300611     1.040025469047     6.341524551393
C                     7.290339110204    -2.822189378743    -7.831690672327
C                     7.658896061721    -4.686436098170    -6.316721571020
C                    -1.112609590181     3.757517745213     6.781636776544
C                    -0.566575233086     1.551347505073     7.642085742187
C                     4.179319200599    -2.031787097757     0.402103272936
C                     3.035797284440    -1.769073748287     1.307284022123
C                     6.347290000605    -2.521183178777    -1.312865555795
C                     0.867311954849    -1.266804050465     3.018067588296
C                     7.330421098266    -2.464344032325    -5.444369123863
C                    -0.842796576998     1.892966452551     5.272334432899
C                     7.526002328276    -4.181065030302    -7.611280669846
C                    -0.841587788079     2.903610351828     7.853142516302
O                     7.435344884485    -2.857996456334    -2.130275861548
O                    -0.180964810399    -1.090380527761     3.931989043227
O                     7.169163916130    -1.542319022178    -4.403827992791
O                    -0.813123901554     1.472944186198     3.937571079617
S                     8.163931588903    -1.659244134777    -3.052115945427
S                    -1.432632789232    -0.040876473558     3.545127608572
Cl                    7.654080162804    -5.270618522876    -8.983226045990
Cl                   -0.843332416550     3.541482207311     9.489863292045
H                     3.481190475898    -0.726481769768    -1.169667408532
H                     5.170964770163    -3.411630253266     1.737833845740
H                     2.843268973010    -3.815304330543     1.976245848374
H                     2.936347344330     0.344634887154     0.878706590140
H                     5.388860360669    -1.154612597353    -2.681871040319
H                     7.080240342636    -3.850133366938     0.205953854771
H                     0.931961947435    -3.358110026903     3.500042070063
H                     1.027098198968     0.790476021830     2.383446759466
H                     7.020371090433    -0.896577497223    -6.879990033926
H                     7.638784787665    -4.211074352413    -4.211816454658
H                    -1.330566083692     3.884785382973     4.631440769164
H                    -0.329490639734    -0.004975509347     6.166692730237
H                     7.190846528995    -2.441669471486    -8.843172756556
H                     7.832646535706    -5.746505101298    -6.161840635599
H                    -1.326588607856     4.806495733766     6.959521764993
H                    -0.348628836277     0.902461979556     8.484337007362
