48
0 1 C24Cl2H16O4S2
C                     4.651068131828    -2.366768353227    -2.701499815886
C                     6.187013717222    -1.641702021370    -0.991375752688
C                     3.854983635914    -2.072438909131     0.892804749467
C                     2.507979635860    -1.169097802183    -0.893898918602
C                     5.721786948032    -2.627856192017    -3.557050114006
C                     7.264788709355    -1.881184697671    -1.840974654016
C                     2.795305006814    -1.916018962337     1.785558396290
C                     1.442802379281    -0.998125603806    -0.008474714819
C                     6.770110915888    -5.289762704412    -1.555774347612
C                     8.869778246802    -4.797056344767    -0.439311484779
C                    -0.150881144182     2.285494094523     1.357778243860
C                    -1.337635462593     2.092020916016     3.469197208887
C                     6.105002695671    -5.258249571796    -0.328748664492
C                     8.209693728101    -4.768174048404     0.790919943300
C                    -1.206932771513     3.032408497084     0.829004932988
C                    -2.397567149527     2.831782668350     2.941702903458
C                     4.864106283006    -1.895798603690    -1.395268967540
C                     3.732875513001    -1.702840187607    -0.459035252947
C                     7.024311148148    -2.406492008940    -3.111239840946
C                     1.593844409211    -1.376689153498     1.325448178049
C                     8.141180874172    -5.041174904481    -1.603681199711
C                    -0.223004034459     1.826352000697     2.672570766717
C                     6.831201440300    -4.988860757649     0.832749978317
C                    -2.322783445107     3.296190255342     1.625525423297
O                     8.045680347631    -2.778289329480    -4.001436127771
O                     0.464548633886    -1.233721690457     2.144914919361
O                     8.765060717985    -5.039108721478    -2.861287155402
O                     0.887706142917     1.137675423458     3.173080484638
S                     9.393182663281    -3.552542153892    -3.358053590153
S                     0.654852305490    -0.468351978669     3.626809730611
Cl                    5.996858850250    -4.920560913422     2.379427293418
Cl                   -3.656370855500     4.228283623937     0.963914307719
H                     3.641048598158    -2.586801152900    -3.036145959304
H                     6.376884765289    -1.243249923018     0.001033313756
H                     4.776696029332    -2.523735167626     1.246530144377
H                     2.395264143847    -0.852055643571    -1.927097726459
H                     5.565809472763    -3.041954224244    -4.548655429060
H                     8.280664800678    -1.704362021888    -1.504534689814
H                     2.899337219393    -2.214061177244     2.824250846777
H                     0.496970273813    -0.575123101363    -0.333675436618
H                     6.226965294851    -5.466392256972    -2.477841512016
H                     9.938510754012    -4.613828613862    -0.495150851435
H                     0.730175744205     2.060158018431     0.764779202939
H                    -1.377631676320     1.721151682343     4.488956646003
H                     5.033137586377    -5.419371268691    -0.279977078621
H                     8.759170240074    -4.574240782063     1.706525568206
H                    -1.165625865212     3.400417586143    -0.191190667861
H                    -3.271089009526     3.050892620010     3.547328250212
